# Generated by pormake.
# Topology fns, (5)-cn, num edge types: 1
# Building blocks:
#     Node 0, Type 0, BuildingBlock: N572, # of connection points: 5
#     Node 1, Type 0, BuildingBlock: N572, # of connection points: 5
#     Node 2, Type 0, BuildingBlock: N572, # of connection points: 5
#     Node 3, Type 0, BuildingBlock: N572, # of connection points: 5
#     Node 4, Type 0, BuildingBlock: N572, # of connection points: 5
#     Node 5, Type 0, BuildingBlock: N572, # of connection points: 5
#     Edge 6, Type (0, 0), BuildingBlock: E123, # of connection points: 2
#     Edge 7, Type (0, 0), BuildingBlock: E123, # of connection points: 2
#     Edge 8, Type (0, 0), BuildingBlock: E123, # of connection points: 2
#     Edge 9, Type (0, 0), BuildingBlock: E123, # of connection points: 2
#     Edge 10, Type (0, 0), BuildingBlock: E123, # of connection points: 2
#     Edge 11, Type (0, 0), BuildingBlock: E123, # of connection points: 2
#     Edge 12, Type (0, 0), BuildingBlock: E123, # of connection points: 2
#     Edge 13, Type (0, 0), BuildingBlock: E123, # of connection points: 2
#     Edge 14, Type (0, 0), BuildingBlock: E123, # of connection points: 2
#     Edge 15, Type (0, 0), BuildingBlock: E123, # of connection points: 2
#     Edge 16, Type (0, 0), BuildingBlock: E123, # of connection points: 2
#     Edge 17, Type (0, 0), BuildingBlock: E123, # of connection points: 2
#     Edge 18, Type (0, 0), BuildingBlock: E123, # of connection points: 2
#     Edge 19, Type (0, 0), BuildingBlock: E123, # of connection points: 2
#     Edge 20, Type (0, 0), BuildingBlock: E123, # of connection points: 2
# Relax obj value: 0.188
# Max RMSD: 0.222
# Mean RMSD: 0.210
data_fns+N572+E123
_symmetry_space_group_name_H-M    P1
_symmetry_Int_Tables_number       1
_symmetry_cell_setting            triclinic
loop_
_symmetry_equiv_pos_as_xyz
'x, y, z'
_cell_length_a     49.426
_cell_length_b     43.304
_cell_length_c     13.043
_cell_angle_alpha  89.986
_cell_angle_beta   90.979
_cell_angle_gamma  115.986
loop_
_atom_site_label
_atom_site_type_symbol
_atom_site_fract_x
_atom_site_fract_y
_atom_site_fract_z
_atom_type_partial_charge
C0 C 0.43098 0.57468 0.09636 0.00000
O1 O 0.42057 0.56424 0.00815 0.00000
O2 O 0.41614 0.56203 0.17649 0.00000
Sm3 Sm 0.40282 0.55659 0.83708 0.00000
O4 O 0.44539 0.54670 0.81698 0.00000
O5 O 0.34892 0.53521 0.78985 0.00000
O6 O 0.36085 0.55446 0.94683 0.00000
C7 C 0.45539 0.52435 0.81814 0.00000
O8 O 0.39614 0.61011 0.79318 0.00000
O9 O 0.44181 0.61456 0.81788 0.00000
O10 O 0.40351 0.55388 0.65924 0.00000
O11 O 0.43922 0.49288 0.82995 0.00000
C12 C 0.42441 0.62714 0.78986 0.00000
O13 O 0.38864 0.52636 0.51147 0.00000
C14 C 0.34208 0.54534 0.87110 0.00000
C15 C 0.40800 0.54985 0.56712 0.00000
O16 O 0.38625 0.49577 0.85678 0.00000
C17 C 0.86936 0.44120 0.45449 0.00000
O18 O 0.86715 0.42816 0.36720 0.00000
O19 O 0.86534 0.42390 0.53591 0.00000
Sm20 Sm 0.85522 0.40765 0.19744 0.00000
O21 O 0.90449 0.44996 0.17484 0.00000
O22 O 0.81954 0.34774 0.15422 0.00000
O23 O 0.81651 0.36422 0.30997 0.00000
C24 C 0.93204 0.45636 0.17590 0.00000
O25 O 0.80589 0.41005 0.15264 0.00000
O26 O 0.84694 0.45832 0.17428 0.00000
O27 O 0.85729 0.40711 0.01960 0.00000
O28 O 0.94142 0.43405 0.18954 0.00000
C29 C 0.81985 0.44238 0.14708 0.00000
O30 O 0.86409 0.38615 0.87345 0.00000
C31 C 0.80516 0.34279 0.23568 0.00000
C32 C 0.86447 0.41065 0.92728 0.00000
O33 O 0.88763 0.37974 0.21972 0.00000
C34 C 0.41357 0.83312 0.23107 0.00000
O35 O 0.40318 0.83275 0.31824 0.00000
O36 O 0.39842 0.83041 0.14941 0.00000
Sm37 Sm 0.38580 0.82213 0.48743 0.00000
O38 O 0.42750 0.87543 0.51236 0.00000
O39 O 0.33218 0.78806 0.52888 0.00000
O40 O 0.34419 0.78131 0.37303 0.00000
C41 C 0.43670 0.90767 0.51253 0.00000
O42 O 0.38086 0.76259 0.53007 0.00000
O43 O 0.42594 0.80491 0.51040 0.00000
O44 O 0.38676 0.82551 0.66539 0.00000
O45 O 0.41984 0.92214 0.49923 0.00000
C46 C 0.40921 0.77473 0.53636 0.00000
O47 O 0.37160 0.83741 0.81179 0.00000
C48 C 0.32557 0.77109 0.44676 0.00000
C49 C 0.39124 0.83407 0.75805 0.00000
O50 O 0.36769 0.86511 0.46648 0.00000
C51 C 0.58907 0.15380 0.23697 0.00000
O52 O 0.59949 0.15377 0.32520 0.00000
O53 O 0.60392 0.15599 0.15686 0.00000
Sm54 Sm 0.61723 0.16386 0.49627 0.00000
O55 O 0.57465 0.11138 0.51639 0.00000
O56 O 0.67113 0.19638 0.54351 0.00000
O57 O 0.65920 0.20370 0.38652 0.00000
C58 C 0.56466 0.07904 0.51525 0.00000
O59 O 0.62390 0.22404 0.54012 0.00000
O60 O 0.57823 0.18283 0.51541 0.00000
O61 O 0.61653 0.16044 0.67412 0.00000
O62 O 0.58083 0.06373 0.50347 0.00000
C63 C 0.59564 0.21280 0.54342 0.00000
O64 O 0.63140 0.14778 0.82191 0.00000
C65 C 0.67797 0.21335 0.46225 0.00000
C66 C 0.61204 0.15192 0.76623 0.00000
O67 O 0.63379 0.11960 0.47663 0.00000
C68 C 0.15074 0.58183 0.87895 0.00000
O69 O 0.15295 0.57099 0.96626 0.00000
O70 O 0.15477 0.56855 0.79756 0.00000
Sm71 Sm 0.16489 0.56241 0.13604 0.00000
O72 O 0.11562 0.55546 0.15863 0.00000
O73 O 0.20055 0.53816 0.17931 0.00000
O74 O 0.20358 0.55767 0.02353 0.00000
C75 C 0.08807 0.53431 0.15758 0.00000
O76 O 0.21422 0.61413 0.18079 0.00000
O77 O 0.17318 0.62136 0.15912 0.00000
O78 O 0.16282 0.55980 0.31389 0.00000
O79 O 0.07868 0.50262 0.14398 0.00000
C80 C 0.20027 0.63251 0.18632 0.00000
O81 O 0.15602 0.53204 0.46007 0.00000
C82 C 0.21493 0.54760 0.09785 0.00000
C83 C 0.15564 0.55616 0.40620 0.00000
O84 O 0.13246 0.50209 0.11383 0.00000
C85 C 0.60657 0.42963 0.10214 0.00000
O86 O 0.61696 0.43966 0.01497 0.00000
O87 O 0.62171 0.44206 0.18380 0.00000
Sm88 Sm 0.63433 0.44642 0.84578 0.00000
O89 O 0.59263 0.45801 0.82083 0.00000
O90 O 0.68795 0.46599 0.80433 0.00000
O91 O 0.67595 0.44722 0.96020 0.00000
C92 C 0.58343 0.48105 0.82063 0.00000
O93 O 0.63927 0.39182 0.80319 0.00000
O94 O 0.59419 0.38907 0.82286 0.00000
O95 O 0.63337 0.44886 0.66782 0.00000
O96 O 0.60029 0.51238 0.83391 0.00000
C97 C 0.61092 0.37561 0.79691 0.00000
O98 O 0.64853 0.47592 0.52139 0.00000
C99 C 0.69456 0.45562 0.88646 0.00000
C100 C 0.62889 0.45293 0.57515 0.00000
O101 O 0.65244 0.50751 0.86667 0.00000
C102 C 0.29557 0.54221 0.93003 0.00000
N103 N 0.32016 0.53863 0.88652 0.00000
C104 C 0.24499 0.51355 0.99174 0.00000
C105 C 0.26967 0.51239 0.94576 0.00000
C106 C 0.27203 0.57437 0.00786 0.00000
C107 C 0.29668 0.57328 0.96107 0.00000
H108 H 0.31484 0.51589 0.88411 0.00000
H109 H 0.26873 0.49090 0.92495 0.00000
C110 C 0.24626 0.54463 0.02255 0.00000
H111 H 0.22721 0.49291 0.00198 0.00000
H112 H 0.31435 0.59401 0.95037 0.00000
H113 H 0.27302 0.59574 0.02973 0.00000
H114 H 0.20325 0.53117 0.03361 0.00000
N115 N 0.22023 0.54510 0.06771 0.00000
C116 C 0.76452 0.29806 0.31470 0.00000
N117 N 0.78943 0.32609 0.27200 0.00000
C118 C 0.74586 0.25936 0.45659 0.00000
C119 C 0.76936 0.28583 0.40766 0.00000
C120 C 0.71235 0.25738 0.32059 0.00000
C121 C 0.73591 0.28371 0.27108 0.00000
H122 H 0.80423 0.33293 0.32016 0.00000
H123 H 0.78893 0.29562 0.43838 0.00000
C124 C 0.71738 0.24517 0.41265 0.00000
H125 H 0.74941 0.25101 0.52041 0.00000
H126 H 0.73231 0.29183 0.20692 0.00000
H127 H 0.69272 0.24782 0.29065 0.00000
H128 H 0.70002 0.20214 0.48811 0.00000
N129 N 0.69374 0.21740 0.46379 0.00000
C130 C 0.74101 0.44914 0.94698 0.00000
N131 N 0.71955 0.45293 0.88107 0.00000
C132 C 0.78496 0.43880 0.95997 0.00000
C133 C 0.76243 0.44158 0.90127 0.00000
C134 C 0.76508 0.45156 0.11060 0.00000
C135 C 0.74236 0.45408 0.05203 0.00000
H136 H 0.72557 0.45223 0.81665 0.00000
H137 H 0.76174 0.43825 0.82907 0.00000
C138 C 0.78617 0.44377 0.06470 0.00000
H139 H 0.79956 0.43347 0.92794 0.00000
H140 H 0.72768 0.45919 0.08446 0.00000
H141 H 0.76602 0.45525 0.18254 0.00000
H142 H 0.81168 0.42156 0.10285 0.00000
N143 N 0.80927 0.44001 0.12350 0.00000
C144 C 0.28332 0.72484 0.35384 0.00000
N145 N 0.30991 0.74536 0.41085 0.00000
C146 C 0.26211 0.69297 0.19817 0.00000
C147 C 0.28697 0.71424 0.25730 0.00000
C148 C 0.22973 0.69233 0.33214 0.00000
C149 C 0.25458 0.71386 0.39114 0.00000
H150 H 0.32532 0.74559 0.37445 0.00000
H151 H 0.30664 0.72158 0.23115 0.00000
C152 C 0.23352 0.68211 0.23589 0.00000
H153 H 0.26481 0.68588 0.13164 0.00000
H154 H 0.25177 0.72107 0.45737 0.00000
H155 H 0.21009 0.68466 0.35850 0.00000
H156 H 0.21056 0.66828 0.10720 0.00000
N157 N 0.20829 0.66079 0.17228 0.00000
C158 C 0.42838 0.68607 0.72327 0.00000
N159 N 0.43659 0.66236 0.77404 0.00000
C160 C 0.42976 0.74229 0.72583 0.00000
C161 C 0.43592 0.71714 0.77220 0.00000
C162 C 0.40880 0.70569 0.58052 0.00000
C163 C 0.41473 0.68037 0.62720 0.00000
H164 H 0.44798 0.67363 0.82886 0.00000
H165 H 0.44539 0.72133 0.83813 0.00000
C166 C 0.41615 0.73643 0.62998 0.00000
H167 H 0.43492 0.76356 0.76019 0.00000
H168 H 0.40934 0.65904 0.59284 0.00000
H169 H 0.39964 0.70173 0.51424 0.00000
H170 H 0.40181 0.77182 0.63127 0.00000
N171 N 0.40948 0.76255 0.58504 0.00000
C172 C 0.59507 0.31149 0.72831 0.00000
N173 N 0.59368 0.34039 0.77463 0.00000
C174 C 0.57490 0.24988 0.72091 0.00000
C175 C 0.57580 0.27953 0.76483 0.00000
C176 C 0.61229 0.28386 0.60263 0.00000
C177 C 0.61339 0.31359 0.64706 0.00000
H178 H 0.57787 0.33195 0.81684 0.00000
H179 H 0.56306 0.27784 0.82046 0.00000
C180 C 0.59323 0.25217 0.63986 0.00000
H181 H 0.56165 0.22798 0.74673 0.00000
H182 H 0.62683 0.33545 0.62143 0.00000
H183 H 0.62474 0.28546 0.54636 0.00000
H184 H 0.59177 0.20648 0.64714 0.00000
N185 N 0.59228 0.22118 0.59759 0.00000
C186 C 0.44492 0.58458 0.24692 0.00000
N187 N 0.44919 0.59528 0.14322 0.00000
C188 C 0.45874 0.60033 0.42371 0.00000
C189 C 0.46238 0.60831 0.32018 0.00000
C190 C 0.41987 0.54492 0.38176 0.00000
C191 C 0.42365 0.55277 0.27800 0.00000
H192 H 0.46169 0.61792 0.14477 0.00000
H193 H 0.47699 0.63028 0.29955 0.00000
C194 C 0.43747 0.56856 0.45414 0.00000
H195 H 0.47092 0.61677 0.47364 0.00000
H196 H 0.41155 0.53616 0.22828 0.00000
H197 H 0.40507 0.52315 0.40262 0.00000
H198 H 0.45282 0.56802 0.59254 0.00000
N199 N 0.43468 0.56079 0.56130 0.00000
C200 C 0.86584 0.43308 0.77232 0.00000
N201 N 0.86282 0.42910 0.88009 0.00000
C202 C 0.84070 0.42751 0.60900 0.00000
C203 C 0.83963 0.42318 0.71460 0.00000
C204 C 0.89425 0.45209 0.61797 0.00000
C205 C 0.89321 0.44752 0.72364 0.00000
H206 H 0.84325 0.42286 0.89272 0.00000
H207 H 0.82072 0.41333 0.74744 0.00000
C208 C 0.86808 0.44194 0.56098 0.00000
H209 H 0.82254 0.42052 0.56978 0.00000
H210 H 0.91142 0.45434 0.76249 0.00000
H211 H 0.91311 0.46226 0.58513 0.00000
H212 H 0.85434 0.42643 0.42100 0.00000
N213 N 0.86845 0.44539 0.45172 0.00000
C214 C 0.41156 0.83113 0.90942 0.00000
N215 N 0.41064 0.83180 0.80070 0.00000
C216 C 0.41599 0.80144 0.05997 0.00000
C217 C 0.41376 0.80336 0.95410 0.00000
C218 C 0.41422 0.85527 0.07747 0.00000
C219 C 0.41174 0.85711 0.97149 0.00000
H220 H 0.41418 0.81416 0.77916 0.00000
H221 H 0.41374 0.78544 0.91202 0.00000
C222 C 0.41617 0.82745 0.12138 0.00000
H223 H 0.41739 0.78217 0.09013 0.00000
H224 H 0.41015 0.87631 0.94168 0.00000
H225 H 0.41457 0.87331 0.11959 0.00000
H226 H 0.40574 0.80299 0.25117 0.00000
N227 N 0.41783 0.82439 0.23041 0.00000
C228 C 0.57508 0.14523 0.08809 0.00000
N229 N 0.56736 0.14939 0.18972 0.00000
C230 C 0.55732 0.12618 0.91602 0.00000
C231 C 0.55162 0.12996 0.01800 0.00000
C232 C 0.61001 0.15329 0.95299 0.00000
C233 C 0.60435 0.15685 0.05533 0.00000
H234 H 0.54743 0.14329 0.18808 0.00000
H235 H 0.53143 0.12199 0.03976 0.00000
C236 C 0.58657 0.13785 0.88388 0.00000
H237 H 0.54104 0.11553 0.86833 0.00000
H238 H 0.62069 0.16731 0.10291 0.00000
H239 H 0.63016 0.16157 0.93082 0.00000
H240 H 0.57900 0.11179 0.75603 0.00000
N241 N 0.59172 0.13291 0.77872 0.00000
C242 C 0.15003 0.58301 0.55480 0.00000
N243 N 0.14626 0.57618 0.44781 0.00000
C244 C 0.15048 0.62006 0.69290 0.00000
C245 C 0.14823 0.61225 0.58890 0.00000
C246 C 0.15598 0.56922 0.72981 0.00000
C247 C 0.15397 0.56150 0.62562 0.00000
H248 H 0.14075 0.59177 0.42077 0.00000
H249 H 0.14543 0.62714 0.54079 0.00000
C250 C 0.15440 0.59847 0.76310 0.00000
H251 H 0.14932 0.64030 0.71571 0.00000
H252 H 0.15535 0.54134 0.60309 0.00000
H253 H 0.15845 0.55421 0.77808 0.00000
H254 H 0.16934 0.63009 0.87956 0.00000
N255 N 0.15731 0.60759 0.86965 0.00000
C256 C 0.60355 0.42777 0.42615 0.00000
N257 N 0.60427 0.43347 0.53349 0.00000
C258 C 0.57828 0.39025 0.28387 0.00000
C259 C 0.58129 0.39721 0.38848 0.00000
C260 C 0.61955 0.44456 0.25345 0.00000
C261 C 0.62275 0.45146 0.35828 0.00000
H262 H 0.58760 0.41615 0.55811 0.00000
H263 H 0.56792 0.38082 0.43455 0.00000
C264 C 0.59751 0.41401 0.21662 0.00000
H265 H 0.56296 0.36910 0.25860 0.00000
H266 H 0.63823 0.47255 0.38328 0.00000
H267 H 0.63265 0.46104 0.20721 0.00000
H268 H 0.59120 0.38399 0.09815 0.00000
N269 N 0.59429 0.40580 0.10937 0.00000
C270 C 0.54024 0.49667 0.80090 0.00000
N271 N 0.55966 0.48067 0.78922 0.00000
C272 C 0.51489 0.52668 0.71875 0.00000
C273 C 0.53459 0.51168 0.71482 0.00000
C274 C 0.50601 0.51142 0.89465 0.00000
C275 C 0.52592 0.49663 0.89107 0.00000
H276 H 0.56319 0.48096 0.72159 0.00000
H277 H 0.54426 0.51174 0.65241 0.00000
C278 C 0.50068 0.52653 0.80895 0.00000
H279 H 0.51120 0.53707 0.65924 0.00000
H280 H 0.52969 0.48647 0.95097 0.00000
H281 H 0.49607 0.51107 0.95655 0.00000
H282 H 0.48890 0.56310 0.77846 0.00000
N283 N 0.48099 0.54286 0.81128 0.00000
C284 C 0.98405 0.49938 0.18171 0.00000
N285 N 0.95275 0.48145 0.20003 0.00000
C286 C 0.03220 0.54197 0.24266 0.00000
C287 C 0.00122 0.52420 0.25279 0.00000
C288 C 0.02919 0.50996 0.09088 0.00000
C289 C 0.99812 0.49233 0.10045 0.00000
H290 H 0.94997 0.48813 0.26280 0.00000
H291 H 0.99175 0.52915 0.30907 0.00000
C292 C 0.04609 0.53479 0.16144 0.00000
H293 H 0.04385 0.55910 0.29174 0.00000
H294 H 0.98654 0.47538 0.05081 0.00000
H295 H 0.03874 0.50481 0.03540 0.00000
H296 H 0.08394 0.57654 0.16446 0.00000
N297 N 0.07799 0.55405 0.15177 0.00000
C298 C 0.51562 0.02370 0.52942 0.00000
N299 N 0.53487 0.05922 0.51863 0.00000
C300 C 0.46634 0.98081 0.57301 0.00000
C301 C 0.48696 0.01503 0.56420 0.00000
C302 C 0.50274 0.96357 0.51107 0.00000
C303 C 0.52350 0.99783 0.50299 0.00000
H304 H 0.52340 0.07027 0.52975 0.00000
H305 H 0.48131 0.03264 0.58225 0.00000
C306 C 0.47435 0.95515 0.54647 0.00000
H307 H 0.44669 0.97506 0.59736 0.00000
H308 H 0.54319 0.00346 0.47925 0.00000
H309 H 0.50821 0.94594 0.49204 0.00000
H310 H 0.44313 0.91694 0.61816 0.00000
N311 N 0.45283 0.92008 0.55848 0.00000
loop_
_geom_bond_atom_site_label_1
_geom_bond_atom_site_label_2
_geom_bond_distance
_geom_bond_site_symmetry_2
_ccdc_geom_bond_type
C0 O1 1.253 . S
C0 O2 1.267 . D
O1 Sm3 2.353 1_554 S
Sm3 O4 2.343 . S
Sm3 O5 2.473 . S
Sm3 O6 2.509 . S
Sm3 O8 2.544 . S
Sm3 O9 2.420 . S
Sm3 O10 2.324 . S
Sm3 O16 2.406 . S
O4 C7 1.265 . S
O5 C14 1.254 . A
O6 C14 1.281 . A
C7 O11 1.253 . D
O8 C12 1.264 . A
O9 C12 1.253 . A
O10 C15 1.251 . S
O13 C15 1.265 . D
C17 O18 1.253 . S
C17 O19 1.267 . D
O18 Sm20 2.353 . S
Sm20 O21 2.343 . S
Sm20 O22 2.473 . S
Sm20 O23 2.509 . S
Sm20 O25 2.544 . S
Sm20 O26 2.420 . S
Sm20 O27 2.324 . S
Sm20 O33 2.406 . S
O21 C24 1.265 . S
O22 C31 1.254 . A
O23 C31 1.281 . A
C24 O28 1.253 . D
O25 C29 1.264 . A
O26 C29 1.253 . A
O27 C32 1.251 1_554 S
O30 C32 1.265 . D
C34 O35 1.253 . S
C34 O36 1.267 . D
O35 Sm37 2.353 . S
Sm37 O38 2.343 . S
Sm37 O39 2.473 . S
Sm37 O40 2.509 . S
Sm37 O42 2.544 . S
Sm37 O43 2.420 . S
Sm37 O44 2.324 . S
Sm37 O50 2.406 . S
O38 C41 1.265 . S
O39 C48 1.254 . A
O40 C48 1.281 . A
C41 O45 1.253 . D
O42 C46 1.264 . A
O43 C46 1.253 . A
O44 C49 1.251 . S
O47 C49 1.265 . D
C51 O52 1.253 . S
C51 O53 1.267 . D
O52 Sm54 2.353 . S
Sm54 O55 2.343 . S
Sm54 O56 2.473 . S
Sm54 O57 2.509 . S
Sm54 O59 2.544 . S
Sm54 O60 2.420 . S
Sm54 O61 2.324 . S
Sm54 O67 2.406 . S
O55 C58 1.265 . S
O56 C65 1.254 . A
O57 C65 1.281 . A
C58 O62 1.253 . D
O59 C63 1.264 . A
O60 C63 1.253 . A
O61 C66 1.251 . S
O64 C66 1.265 . D
C68 O69 1.253 . S
C68 O70 1.267 . D
O69 Sm71 2.353 1_556 S
Sm71 O72 2.343 . S
Sm71 O73 2.473 . S
Sm71 O74 2.509 . S
Sm71 O76 2.544 . S
Sm71 O77 2.420 . S
Sm71 O78 2.324 . S
Sm71 O84 2.406 . S
O72 C75 1.265 . S
O73 C82 1.254 . A
O74 C82 1.281 . A
C75 O79 1.253 . D
O76 C80 1.264 . A
O77 C80 1.253 . A
O78 C83 1.251 . S
O81 C83 1.265 . D
C85 O86 1.253 . S
C85 O87 1.267 . D
O86 Sm88 2.353 1_554 S
Sm88 O89 2.343 . S
Sm88 O90 2.473 . S
Sm88 O91 2.509 . S
Sm88 O93 2.544 . S
Sm88 O94 2.420 . S
Sm88 O95 2.324 . S
Sm88 O101 2.406 . S
O89 C92 1.265 . S
O90 C99 1.254 . A
O91 C99 1.281 . A
C92 O96 1.253 . D
O93 C97 1.264 . A
O94 C97 1.253 . A
O95 C100 1.251 . S
O98 C100 1.265 . D
C102 N103 1.419 . S
C102 C105 1.382 . A
C102 C107 1.383 . A
N103 H108 0.901 . S
C104 C105 1.389 . A
C104 C110 1.379 1_556 A
C104 H111 0.951 1_556 S
C105 H109 0.951 . S
C106 C107 1.391 1_554 A
C106 C110 1.374 . A
C106 H113 0.949 . S
C107 H112 0.951 . S
C110 N115 1.432 . S
H114 N115 0.900 . S
C116 N117 1.419 . S
C116 C119 1.382 . A
C116 C121 1.383 . A
N117 H122 0.901 . S
C118 C119 1.389 . A
C118 C124 1.379 . A
C118 H125 0.951 . S
C119 H123 0.951 . S
C120 C121 1.391 . A
C120 C124 1.374 . A
C120 H127 0.949 . S
C121 H126 0.951 . S
C124 N129 1.432 . S
H128 N129 0.900 . S
C130 N131 1.419 . S
C130 C133 1.382 . A
C130 C135 1.383 1_556 A
N131 H136 0.901 . S
C132 C133 1.389 . A
C132 C138 1.379 1_556 A
C132 H139 0.951 . S
C133 H137 0.951 . S
C134 C135 1.391 . A
C134 C138 1.374 . A
C134 H141 0.949 . S
C135 H140 0.951 . S
C138 N143 1.432 . S
H142 N143 0.900 . S
C144 N145 1.419 . S
C144 C147 1.382 . A
C144 C149 1.383 . A
N145 H150 0.901 . S
C146 C147 1.389 . A
C146 C152 1.379 . A
C146 H153 0.951 . S
C147 H151 0.951 . S
C148 C149 1.391 . A
C148 C152 1.374 . A
C148 H155 0.949 . S
C149 H154 0.951 . S
C152 N157 1.432 . S
H156 N157 0.900 . S
C158 N159 1.419 . S
C158 C161 1.382 . A
C158 C163 1.383 . A
N159 H164 0.901 . S
C160 C161 1.389 . A
C160 C166 1.379 . A
C160 H167 0.951 . S
C161 H165 0.951 . S
C162 C163 1.391 . A
C162 C166 1.374 . A
C162 H169 0.949 . S
C163 H168 0.951 . S
C166 N171 1.432 . S
H170 N171 0.900 . S
C172 N173 1.419 . S
C172 C175 1.382 . A
C172 C177 1.383 . A
N173 H178 0.901 . S
C174 C175 1.389 . A
C174 C180 1.379 . A
C174 H181 0.951 . S
C175 H179 0.951 . S
C176 C177 1.391 . A
C176 C180 1.374 . A
C176 H183 0.949 . S
C177 H182 0.951 . S
C180 N185 1.432 . S
H184 N185 0.900 . S
C186 N187 1.419 . S
C186 C189 1.382 . A
C186 C191 1.383 . A
N187 H192 0.901 . S
C188 C189 1.389 . A
C188 C194 1.379 . A
C188 H195 0.951 . S
C189 H193 0.951 . S
C190 C191 1.391 . A
C190 C194 1.374 . A
C190 H197 0.949 . S
C191 H196 0.951 . S
C194 N199 1.432 . S
H198 N199 0.900 . S
C200 N201 1.419 . S
C200 C203 1.382 . A
C200 C205 1.383 . A
N201 H206 0.901 . S
C202 C203 1.389 . A
C202 C208 1.379 . A
C202 H209 0.951 . S
C203 H207 0.951 . S
C204 C205 1.391 . A
C204 C208 1.374 . A
C204 H211 0.949 . S
C205 H210 0.951 . S
C208 N213 1.432 . S
H212 N213 0.900 . S
C214 N215 1.419 . S
C214 C217 1.382 . A
C214 C219 1.383 . A
N215 H220 0.901 . S
C216 C217 1.389 1_554 A
C216 C222 1.379 . A
C216 H223 0.951 . S
C217 H221 0.951 . S
C218 C219 1.391 1_554 A
C218 C222 1.374 . A
C218 H225 0.949 . S
C219 H224 0.951 . S
C222 N227 1.432 . S
H226 N227 0.900 . S
C228 N229 1.419 . S
C228 C231 1.382 . A
C228 C233 1.383 . A
N229 H234 0.901 . S
C230 C231 1.389 1_556 A
C230 C236 1.379 . A
C230 H237 0.951 . S
C231 H235 0.951 . S
C232 C233 1.391 1_556 A
C232 C236 1.374 . A
C232 H239 0.949 . S
C233 H238 0.951 . S
C236 N241 1.432 . S
H240 N241 0.900 . S
C242 N243 1.419 . S
C242 C245 1.382 . A
C242 C247 1.383 . A
N243 H248 0.901 . S
C244 C245 1.389 . A
C244 C250 1.379 . A
C244 H251 0.951 . S
C245 H249 0.951 . S
C246 C247 1.391 . A
C246 C250 1.374 . A
C246 H253 0.949 . S
C247 H252 0.951 . S
C250 N255 1.432 . S
H254 N255 0.900 . S
C256 N257 1.419 . S
C256 C259 1.382 . A
C256 C261 1.383 . A
N257 H262 0.901 . S
C258 C259 1.389 . A
C258 C264 1.379 . A
C258 H265 0.951 . S
C259 H263 0.951 . S
C260 C261 1.391 . A
C260 C264 1.374 . A
C260 H267 0.949 . S
C261 H266 0.951 . S
C264 N269 1.432 . S
H268 N269 0.900 . S
C270 N271 1.419 . S
C270 C273 1.382 . A
C270 C275 1.383 . A
N271 H276 0.901 . S
C272 C273 1.389 . A
C272 C278 1.379 . A
C272 H279 0.951 . S
C273 H277 0.951 . S
C274 C275 1.391 . A
C274 C278 1.374 . A
C274 H281 0.949 . S
C275 H280 0.951 . S
C278 N283 1.432 . S
H282 N283 0.900 . S
C284 N285 1.419 . S
C284 C287 1.382 1_655 A
C284 C289 1.383 . A
N285 H290 0.901 . S
C286 C287 1.389 . A
C286 C292 1.379 . A
C286 H293 0.951 . S
C287 H291 0.951 1_455 S
C288 C289 1.391 1_455 A
C288 C292 1.374 . A
C288 H295 0.949 . S
C289 H294 0.951 . S
C292 N297 1.432 . S
H296 N297 0.900 . S
C298 N299 1.419 . S
C298 C301 1.382 . A
C298 C303 1.383 1_545 A
N299 H304 0.901 . S
C300 C301 1.389 1_565 A
C300 C306 1.379 . A
C300 H307 0.951 . S
C301 H305 0.951 . S
C302 C303 1.391 . A
C302 C306 1.374 . A
C302 H309 0.949 . S
C303 H308 0.951 1_565 S
C306 N311 1.432 . S
H310 N311 0.900 . S
N103 C14 1.015 . S
N115 C82 0.513 . S
N117 C31 0.934 . S
N129 C65 0.720 . S
N131 C99 1.293 . S
N143 C29 0.571 . S
N145 C48 1.137 . S
N157 C80 1.126 . S
N159 C12 1.390 . S
N171 C46 0.829 . S
N173 C97 1.411 . S
N185 C63 0.846 . S
N187 C0 1.121 . S
N199 C15 1.194 . S
N201 C32 1.039 . S
N213 C17 0.208 . S
N215 C49 1.141 . S
N227 C34 0.507 . S
N229 C51 1.169 . S
N241 C66 0.997 . S
N243 C83 1.274 . S
N255 C68 1.024 . S
N257 C100 1.251 . S
N269 C85 0.946 . S
N271 C92 1.231 . S
N283 C7 1.169 . S
N285 C24 1.158 . S
N297 C75 1.165 . S
N299 C58 1.342 . S
N311 C41 0.944 . S
