# Generated by pormake.
# Topology sxd, (6)-cn, num edge types: 1
# Building blocks:
#     Node 0, Type 0, BuildingBlock: N356, # of connection points: 6
#     Node 1, Type 0, BuildingBlock: N356, # of connection points: 6
#     Node 2, Type 0, BuildingBlock: N356, # of connection points: 6
#     Node 3, Type 0, BuildingBlock: N356, # of connection points: 6
#     Edge 4, Type (0, 0), BuildingBlock: E33, # of connection points: 2
#     Edge 5, Type (0, 0), BuildingBlock: E33, # of connection points: 2
#     Edge 6, Type (0, 0), BuildingBlock: E33, # of connection points: 2
#     Edge 7, Type (0, 0), BuildingBlock: E33, # of connection points: 2
#     Edge 8, Type (0, 0), BuildingBlock: E33, # of connection points: 2
#     Edge 9, Type (0, 0), BuildingBlock: E33, # of connection points: 2
#     Edge 10, Type (0, 0), BuildingBlock: E33, # of connection points: 2
#     Edge 11, Type (0, 0), BuildingBlock: E33, # of connection points: 2
#     Edge 12, Type (0, 0), BuildingBlock: E33, # of connection points: 2
#     Edge 13, Type (0, 0), BuildingBlock: E33, # of connection points: 2
#     Edge 14, Type (0, 0), BuildingBlock: E33, # of connection points: 2
#     Edge 15, Type (0, 0), BuildingBlock: E33, # of connection points: 2
# Relax obj value: 0.131
# Max RMSD: 0.244
# Mean RMSD: 0.244
data_sxd+N356+E33
_symmetry_space_group_name_H-M    P1
_symmetry_Int_Tables_number       1
_symmetry_cell_setting            triclinic
loop_
_symmetry_equiv_pos_as_xyz
'x, y, z'
_cell_length_a     21.001
_cell_length_b     24.549
_cell_length_c     55.181
_cell_angle_alpha  90.000
_cell_angle_beta   79.130
_cell_angle_gamma  90.000
loop_
_atom_site_label
_atom_site_type_symbol
_atom_site_fract_x
_atom_site_fract_y
_atom_site_fract_z
_atom_type_partial_charge
Ca0 Ca 0.68652 0.20886 0.38044 0.00000
Ca1 Ca 0.49340 0.24004 0.38510 0.00000
O2 O 0.44186 0.29603 0.34979 0.00000
O3 O 0.45745 0.20817 0.34825 0.00000
C4 C 0.44271 0.25157 0.33928 0.00000
O5 O 0.51166 0.32554 0.40239 0.00000
O6 O 0.59962 0.37469 0.40437 0.00000
C7 C 0.54577 0.35356 0.41367 0.00000
O8 O 0.59827 0.24990 0.35968 0.00000
O9 O 0.69279 0.29090 0.35010 0.00000
O10 O 0.79957 0.19165 0.38273 0.00000
O11 O 0.73846 0.17158 0.41836 0.00000
O12 O 0.38495 0.25971 0.40277 0.00000
O13 O 0.48573 0.20921 0.42880 0.00000
O14 O 0.58358 0.20029 0.40638 0.00000
C15 C 0.63592 0.28499 0.34755 0.00000
C16 C 0.79181 0.17232 0.40422 0.00000
C17 C 0.32718 0.27189 0.40688 0.00000
C18 C 0.54228 0.19080 0.42568 0.00000
Ca19 Ca 0.18654 0.70886 0.88043 0.00000
Ca20 Ca 0.99343 0.74004 0.88509 0.00000
O21 O 0.94189 0.79603 0.84978 0.00000
O22 O 0.95748 0.70817 0.84824 0.00000
C23 C 0.94274 0.75157 0.83927 0.00000
O24 O 0.01169 0.82554 0.90238 0.00000
O25 O 0.09965 0.87469 0.90436 0.00000
C26 C 0.04580 0.85356 0.91366 0.00000
O27 O 0.09829 0.74990 0.85967 0.00000
O28 O 0.19281 0.79090 0.85009 0.00000
O29 O 0.29960 0.69165 0.88272 0.00000
O30 O 0.23849 0.67158 0.91835 0.00000
O31 O 0.88498 0.75971 0.90276 0.00000
O32 O 0.98576 0.70921 0.92879 0.00000
O33 O 0.08361 0.70029 0.90637 0.00000
C34 C 0.13595 0.78499 0.84754 0.00000
C35 C 0.29184 0.67232 0.90421 0.00000
C36 C 0.82720 0.77189 0.90687 0.00000
C37 C 0.04230 0.69080 0.92567 0.00000
Ca38 Ca 0.87465 0.20886 0.11956 0.00000
Ca39 Ca 0.06776 0.24004 0.11490 0.00000
O40 O 0.11930 0.29603 0.15021 0.00000
O41 O 0.10371 0.20817 0.15176 0.00000
C42 C 0.11845 0.25157 0.16072 0.00000
O43 O 0.04950 0.32554 0.09762 0.00000
O44 O 0.96154 0.37469 0.09563 0.00000
C45 C 0.01539 0.35356 0.08634 0.00000
O46 O 0.96289 0.24990 0.14032 0.00000
O47 O 0.86838 0.29090 0.14991 0.00000
O48 O 0.76159 0.19165 0.11728 0.00000
O49 O 0.82270 0.17158 0.08165 0.00000
O50 O 0.17621 0.25971 0.09723 0.00000
O51 O 0.07543 0.20921 0.07121 0.00000
O52 O 0.97758 0.20029 0.09362 0.00000
C53 C 0.92524 0.28499 0.15245 0.00000
C54 C 0.76935 0.17232 0.09578 0.00000
C55 C 0.23399 0.27189 0.09312 0.00000
C56 C 0.01889 0.19080 0.07433 0.00000
Ca57 Ca 0.37465 0.70886 0.61957 0.00000
Ca58 Ca 0.56777 0.74004 0.61490 0.00000
O59 O 0.61930 0.79603 0.65021 0.00000
O60 O 0.60372 0.70817 0.65176 0.00000
C61 C 0.61846 0.75157 0.66072 0.00000
O62 O 0.54951 0.82554 0.59762 0.00000
O63 O 0.46154 0.87469 0.59564 0.00000
C64 C 0.51539 0.85356 0.58634 0.00000
O65 O 0.46290 0.74990 0.64032 0.00000
O66 O 0.36838 0.79090 0.64991 0.00000
O67 O 0.26160 0.69165 0.61728 0.00000
O68 O 0.32270 0.67158 0.58165 0.00000
O69 O 0.67621 0.75971 0.59723 0.00000
O70 O 0.57543 0.70921 0.57121 0.00000
O71 O 0.47758 0.70029 0.59362 0.00000
C72 C 0.42525 0.78499 0.65245 0.00000
C73 C 0.26936 0.67232 0.59579 0.00000
C74 C 0.73399 0.77189 0.59312 0.00000
C75 C 0.51889 0.69080 0.57433 0.00000
C76 C 0.54919 0.15405 0.44631 0.00000
C77 C 0.54649 0.10903 0.46592 0.00000
C78 C 0.54388 0.06399 0.48551 0.00000
C79 C 0.51202 0.07543 0.51252 0.00000
C80 C 0.50937 0.03038 0.53211 0.00000
C81 C 0.53867 0.97392 0.52469 0.00000
C82 C 0.57052 0.96249 0.49768 0.00000
C83 C 0.57311 0.00752 0.47809 0.00000
C84 C 0.53602 0.92888 0.54428 0.00000
C85 C 0.53343 0.88381 0.56385 0.00000
H86 H 0.49040 0.11724 0.51801 0.00000
H87 H 0.48574 0.03882 0.55209 0.00000
H88 H 0.59218 0.92068 0.49219 0.00000
H89 H 0.59667 0.99990 0.45810 0.00000
C90 C 0.52770 0.38382 0.43615 0.00000
C91 C 0.52506 0.42891 0.45572 0.00000
C92 C 0.52244 0.47395 0.47531 0.00000
C93 C 0.54188 0.53269 0.46737 0.00000
C94 C 0.53923 0.57773 0.48695 0.00000
C95 C 0.51723 0.56401 0.51449 0.00000
C96 C 0.49778 0.50527 0.52245 0.00000
C97 C 0.50037 0.46024 0.50285 0.00000
C98 C 0.51459 0.60906 0.53408 0.00000
C99 C 0.51195 0.65406 0.55369 0.00000
H100 H 0.55824 0.54284 0.44698 0.00000
H101 H 0.55356 0.62123 0.48107 0.00000
H102 H 0.48147 0.49513 0.54283 0.00000
H103 H 0.48595 0.41675 0.50874 0.00000
C104 C 0.01192 0.15402 0.05371 0.00000
C105 C 0.01452 0.10893 0.03413 0.00000
C106 C 0.01716 0.06389 0.01454 0.00000
C107 C 0.02100 0.00367 0.02194 0.00000
C108 C 0.02361 0.95863 0.00235 0.00000
C109 C 0.02248 0.97382 0.97536 0.00000
C110 C 0.01863 0.03404 0.96796 0.00000
C111 C 0.01596 0.07908 0.98755 0.00000
C112 C 0.02510 0.92877 0.95577 0.00000
C113 C 0.02773 0.88378 0.93616 0.00000
H114 H 0.02191 0.99242 0.04192 0.00000
H115 H 0.02638 0.91404 0.00783 0.00000
H116 H 0.01777 0.04528 0.94798 0.00000
H117 H 0.01309 0.12366 0.98208 0.00000
C118 C 0.04926 0.65406 0.94631 0.00000
C119 C 0.04666 0.60906 0.96592 0.00000
C120 C 0.04403 0.56401 0.98551 0.00000
C121 C 0.09248 0.56454 0.00326 0.00000
C122 C 0.08984 0.51951 0.02285 0.00000
C123 C 0.03879 0.47391 0.02467 0.00000
C124 C 0.99034 0.47338 0.00692 0.00000
C125 C 0.99294 0.51844 0.98734 0.00000
C126 C 0.03616 0.42887 0.04427 0.00000
C127 C 0.03348 0.38381 0.06385 0.00000
H128 H 0.13032 0.59826 0.00190 0.00000
H129 H 0.12566 0.51993 0.03601 0.00000
H130 H 0.95253 0.43963 0.00828 0.00000
H131 H 0.95706 0.51806 0.97420 0.00000
C132 C 0.64316 0.29825 0.32598 0.00000
C133 C 0.68902 0.29830 0.30067 0.00000
C134 C 0.73482 0.29830 0.27534 0.00000
C135 C 0.76827 0.35145 0.26498 0.00000
C136 C 0.81410 0.35145 0.23966 0.00000
C137 C 0.82641 0.29830 0.22468 0.00000
C138 C 0.79297 0.24515 0.23503 0.00000
C139 C 0.74719 0.24514 0.26037 0.00000
C140 C 0.87224 0.29831 0.19935 0.00000
C141 C 0.91803 0.29825 0.17403 0.00000
H142 H 0.75911 0.39081 0.27606 0.00000
H143 H 0.83892 0.39078 0.23200 0.00000
H144 H 0.80211 0.20580 0.22395 0.00000
H145 H 0.72245 0.20579 0.26804 0.00000
C146 C 0.15507 0.24644 0.18966 0.00000
C147 C 0.19694 0.24651 0.20977 0.00000
C148 C 0.23879 0.24650 0.22988 0.00000
C149 C 0.30127 0.28075 0.22644 0.00000
C150 C 0.34310 0.28076 0.24656 0.00000
C151 C 0.32248 0.24646 0.27010 0.00000
C152 C 0.25999 0.21221 0.27354 0.00000
C153 C 0.21813 0.21224 0.25343 0.00000
C154 C 0.36432 0.24647 0.29021 0.00000
C155 C 0.40612 0.24643 0.31034 0.00000
H156 H 0.31658 0.30609 0.20900 0.00000
H157 H 0.38932 0.30616 0.24402 0.00000
H158 H 0.24472 0.18684 0.29097 0.00000
H159 H 0.17186 0.18690 0.25598 0.00000
C160 C 0.65510 0.74640 0.68965 0.00000
C161 C 0.69700 0.74637 0.70975 0.00000
C162 C 0.73884 0.74636 0.72986 0.00000
C163 C 0.78771 0.70003 0.73084 0.00000
C164 C 0.82957 0.70004 0.75095 0.00000
C165 C 0.82248 0.74634 0.77010 0.00000
C166 C 0.77361 0.79268 0.76912 0.00000
C167 C 0.73180 0.79270 0.74900 0.00000
C168 C 0.86434 0.74634 0.79021 0.00000
C169 C 0.90615 0.74639 0.81033 0.00000
H170 H 0.79291 0.66571 0.71668 0.00000
H171 H 0.86580 0.66577 0.75166 0.00000
H172 H 0.76839 0.82697 0.78329 0.00000
H173 H 0.69563 0.82701 0.74826 0.00000
C174 C 0.41802 0.79825 0.67402 0.00000
C175 C 0.37218 0.79831 0.69934 0.00000
C176 C 0.32637 0.79831 0.72467 0.00000
C177 C 0.30571 0.85258 0.73782 0.00000
C178 C 0.25988 0.85258 0.76314 0.00000
C179 C 0.23479 0.79830 0.77532 0.00000
C180 C 0.25544 0.74403 0.76217 0.00000
C181 C 0.30122 0.74403 0.73684 0.00000
C182 C 0.18896 0.79831 0.80065 0.00000
C183 C 0.14315 0.79825 0.82598 0.00000
H184 H 0.32435 0.89276 0.72881 0.00000
H185 H 0.24453 0.89276 0.77287 0.00000
H186 H 0.23683 0.70385 0.77119 0.00000
H187 H 0.31650 0.70386 0.72710 0.00000
C188 C 0.28026 0.24727 0.40421 0.00000
C189 C 0.20800 0.23451 0.40524 0.00000
C190 C 0.13576 0.22168 0.40627 0.00000
C191 C 0.08359 0.26312 0.41769 0.00000
C192 C 0.01135 0.25030 0.41871 0.00000
C193 C 0.99128 0.19601 0.40835 0.00000
C194 C 0.04343 0.15458 0.39693 0.00000
C195 C 0.11568 0.16742 0.39589 0.00000
C196 C 0.91902 0.18319 0.40938 0.00000
C197 C 0.84680 0.17032 0.41039 0.00000
H198 H 0.09844 0.30328 0.42538 0.00000
H199 H 0.97273 0.28099 0.42713 0.00000
H200 H 0.02857 0.11439 0.38925 0.00000
H201 H 0.15430 0.13675 0.38743 0.00000
C202 C 0.34684 0.67027 0.91039 0.00000
C203 C 0.41909 0.68307 0.90939 0.00000
C204 C 0.49133 0.69591 0.90836 0.00000
C205 C 0.51694 0.70509 0.93241 0.00000
C206 C 0.58919 0.71790 0.93139 0.00000
C207 C 0.63580 0.72160 0.90630 0.00000
C208 C 0.61020 0.71240 0.88225 0.00000
C209 C 0.53796 0.69954 0.88328 0.00000
C210 C 0.70805 0.73441 0.90527 0.00000
C211 C 0.78030 0.74724 0.90422 0.00000
H212 H 0.48242 0.70242 0.95098 0.00000
H213 H 0.60816 0.72465 0.94919 0.00000
H214 H 0.64472 0.71512 0.86367 0.00000
H215 H 0.51900 0.69272 0.86547 0.00000
C216 C 0.28090 0.24724 0.09578 0.00000
C217 C 0.35315 0.23440 0.09472 0.00000
C218 C 0.42539 0.22157 0.09369 0.00000
C219 C 0.46111 0.18215 0.07401 0.00000
C220 C 0.53336 0.16934 0.07298 0.00000
C221 C 0.56986 0.19589 0.09165 0.00000
C222 C 0.53416 0.23532 0.11132 0.00000
C223 C 0.46192 0.24817 0.11234 0.00000
C224 C 0.64212 0.18307 0.09061 0.00000
C225 C 0.71435 0.17027 0.08960 0.00000
H226 H 0.43407 0.16244 0.06021 0.00000
H227 H 0.55982 0.14020 0.05839 0.00000
H228 H 0.56119 0.25499 0.12514 0.00000
H229 H 0.43548 0.27737 0.12690 0.00000
C230 C 0.78089 0.74722 0.59580 0.00000
C231 C 0.85311 0.73434 0.59479 0.00000
C232 C 0.92536 0.72153 0.59376 0.00000
C233 C 0.94829 0.69976 0.61685 0.00000
C234 C 0.02052 0.68691 0.61581 0.00000
C235 C 0.06985 0.69592 0.59171 0.00000
C236 C 0.04693 0.71768 0.56862 0.00000
C237 C 0.97468 0.73047 0.56965 0.00000
C238 C 0.14210 0.68308 0.59068 0.00000
C239 C 0.21435 0.67028 0.58963 0.00000
H240 H 0.91179 0.69315 0.63470 0.00000
H241 H 0.03749 0.67074 0.63290 0.00000
H242 H 0.08345 0.72433 0.55078 0.00000
H243 H 0.95770 0.74657 0.55256 0.00000
loop_
_geom_bond_atom_site_label_1
_geom_bond_atom_site_label_2
_geom_bond_distance
_geom_bond_site_symmetry_2
_ccdc_geom_bond_type
Ca0 O8 2.562 . S
Ca0 O9 2.606 . S
Ca0 O10 2.438 . S
Ca0 O11 2.696 . S
Ca0 O14 2.366 . S
Ca1 O2 2.766 . S
Ca1 O3 2.428 . S
Ca1 O5 2.366 . S
Ca1 O8 2.390 . S
Ca1 O12 2.352 . S
Ca1 O13 2.503 . S
Ca1 O14 2.599 . S
O2 C4 1.234 . A
O3 C4 1.239 . A
O5 C7 1.242 . S
O6 C7 1.262 . D
O8 C15 1.271 . S
O9 C15 1.237 . D
O10 C16 1.259 . A
O11 C16 1.239 . A
O12 C17 1.229 . T
O13 C18 1.252 . D
O14 C18 1.262 . S
Ca19 O27 2.562 . S
Ca19 O28 2.606 . S
Ca19 O29 2.438 . S
Ca19 O30 2.696 . S
Ca19 O33 2.366 . S
Ca20 O21 2.766 . S
Ca20 O22 2.428 . S
Ca20 O24 2.366 1_655 S
Ca20 O27 2.390 1_655 S
Ca20 O31 2.352 . S
Ca20 O32 2.503 . S
Ca20 O33 2.599 1_655 S
O21 C23 1.234 . A
O22 C23 1.239 . A
O24 C26 1.242 . S
O25 C26 1.262 . D
O27 C34 1.271 . S
O28 C34 1.237 . D
O29 C35 1.259 . A
O30 C35 1.239 . A
O31 C36 1.229 . T
O32 C37 1.252 1_655 D
O33 C37 1.262 . S
Ca38 O46 2.562 . S
Ca38 O47 2.606 . S
Ca38 O48 2.438 . S
Ca38 O49 2.696 . S
Ca38 O52 2.366 . S
Ca39 O40 2.766 . S
Ca39 O41 2.428 . S
Ca39 O43 2.366 . S
Ca39 O46 2.390 1_455 S
Ca39 O50 2.352 . S
Ca39 O51 2.503 . S
Ca39 O52 2.599 1_455 S
O40 C42 1.234 . A
O41 C42 1.239 . A
O43 C45 1.242 . S
O44 C45 1.262 1_655 D
O46 C53 1.271 . S
O47 C53 1.237 . D
O48 C54 1.259 . A
O49 C54 1.239 . A
O50 C55 1.229 . T
O51 C56 1.252 . D
O52 C56 1.262 1_655 S
Ca57 O65 2.562 . S
Ca57 O66 2.606 . S
Ca57 O67 2.438 . S
Ca57 O68 2.696 . S
Ca57 O71 2.366 . S
Ca58 O59 2.766 . S
Ca58 O60 2.428 . S
Ca58 O62 2.366 . S
Ca58 O65 2.390 . S
Ca58 O69 2.352 . S
Ca58 O70 2.503 . S
Ca58 O71 2.599 . S
O59 C61 1.234 . A
O60 C61 1.239 . A
O62 C64 1.242 . S
O63 C64 1.262 . D
O65 C72 1.271 . S
O66 C72 1.237 . D
O67 C73 1.259 . A
O68 C73 1.239 . A
O69 C74 1.229 . T
O70 C75 1.252 . D
O71 C75 1.262 . S
C76 C77 1.540 . T
C77 C78 1.540 . S
C78 C79 1.540 . A
C78 C83 1.540 . A
C79 C80 1.540 . A
C79 H86 1.140 . S
C80 C81 1.540 1_545 A
C80 H87 1.140 . S
C81 C82 1.540 . A
C81 C84 1.540 . S
C82 C83 1.540 1_565 A
C82 H88 1.140 . S
C83 H89 1.136 1_545 S
C84 C85 1.540 . T
C90 C91 1.540 . T
C91 C92 1.540 . S
C92 C93 1.540 . A
C92 C97 1.540 . A
C93 C94 1.540 . A
C93 H100 1.140 . S
C94 C95 1.540 . A
C94 H101 1.140 . S
C95 C96 1.540 . A
C95 C98 1.540 . S
C96 C97 1.540 . A
C96 H102 1.140 . S
C97 H103 1.140 . S
C98 C99 1.540 . T
C104 C105 1.540 . T
C105 C106 1.540 . S
C106 C107 1.540 . A
C106 C111 1.540 1_554 A
C107 C108 1.540 1_545 A
C107 H114 1.140 1_545 S
C108 C109 1.540 1_554 A
C108 H115 1.140 . S
C109 C110 1.540 1_565 A
C109 C112 1.540 . S
C110 C111 1.540 . A
C110 H116 1.140 . S
C111 H117 1.140 . S
C112 C113 1.540 . T
C118 C119 1.540 . T
C119 C120 1.540 . S
C120 C121 1.540 1_556 A
C120 C125 1.540 1_455 A
C121 C122 1.540 . A
C121 H128 1.140 . S
C122 C123 1.540 . A
C122 H129 1.140 . S
C123 C124 1.540 1_455 A
C123 C126 1.540 . S
C124 C125 1.540 1_554 A
C124 H130 1.140 . S
C125 H131 1.140 . S
C126 C127 1.540 . T
C132 C133 1.540 . T
C133 C134 1.540 . S
C134 C135 1.540 . A
C134 C139 1.540 . A
C135 C136 1.540 . A
C135 H142 1.140 . S
C136 C137 1.540 . A
C136 H143 1.140 . S
C137 C138 1.540 . A
C137 C140 1.540 . S
C138 C139 1.540 . A
C138 H144 1.140 . S
C139 H145 1.140 . S
C140 C141 1.540 . T
C146 C147 1.540 . T
C147 C148 1.540 . S
C148 C149 1.540 . A
C148 C153 1.540 . A
C149 C150 1.540 . A
C149 H156 1.140 . S
C150 C151 1.540 . A
C150 H157 1.140 . S
C151 C152 1.540 . A
C151 C154 1.540 . S
C152 C153 1.540 . A
C152 H158 1.140 . S
C153 H159 1.140 . S
C154 C155 1.540 . T
C160 C161 1.540 . T
C161 C162 1.540 . S
C162 C163 1.540 . A
C162 C167 1.540 . A
C163 C164 1.540 . A
C163 H170 1.140 . S
C164 C165 1.540 . A
C164 H171 1.140 . S
C165 C166 1.540 . A
C165 C168 1.540 . S
C166 C167 1.540 . A
C166 H172 1.140 . S
C167 H173 1.140 . S
C168 C169 1.540 . T
C174 C175 1.540 . T
C175 C176 1.540 . S
C176 C177 1.540 . A
C176 C181 1.540 . A
C177 C178 1.540 . A
C177 H184 1.140 . S
C178 C179 1.540 . A
C178 H185 1.140 . S
C179 C180 1.540 . A
C179 C182 1.540 . S
C180 C181 1.540 . A
C180 H186 1.140 . S
C181 H187 1.140 . S
C182 C183 1.540 . T
C188 C189 1.540 . T
C189 C190 1.540 . S
C190 C191 1.540 . A
C190 C195 1.540 . A
C191 C192 1.540 . A
C191 H198 1.140 . S
C192 C193 1.540 1_455 A
C192 H199 1.140 1_455 S
C193 C194 1.540 1_655 A
C193 C196 1.540 . S
C194 C195 1.540 . A
C194 H200 1.140 . S
C195 H201 1.140 . S
C196 C197 1.540 . T
C202 C203 1.540 . T
C203 C204 1.540 . S
C204 C205 1.540 . A
C204 C209 1.540 . A
C205 C206 1.540 . A
C205 H212 1.140 . S
C206 C207 1.540 . A
C206 H213 1.140 . S
C207 C208 1.540 . A
C207 C210 1.540 . S
C208 C209 1.540 . A
C208 H214 1.140 . S
C209 H215 1.140 . S
C210 C211 1.540 . T
C216 C217 1.540 . T
C217 C218 1.540 . S
C218 C219 1.540 . A
C218 C223 1.540 . A
C219 C220 1.540 . A
C219 H226 1.140 . S
C220 C221 1.540 . A
C220 H227 1.140 . S
C221 C222 1.540 . A
C221 C224 1.540 . S
C222 C223 1.540 . A
C222 H228 1.140 . S
C223 H229 1.140 . S
C224 C225 1.540 . T
C230 C231 1.540 . T
C231 C232 1.540 . S
C232 C233 1.540 . A
C232 C237 1.540 . A
C233 C234 1.540 1_655 A
C233 H240 1.140 . S
C234 C235 1.540 . A
C234 H241 1.140 . S
C235 C236 1.540 . A
C235 C238 1.540 . S
C236 C237 1.540 1_455 A
C236 H242 1.140 . S
C237 H243 1.140 . S
C238 C239 1.540 . T
C76 C18 1.481 . S
C85 C64 1.434 . S
C90 C7 1.434 . S
C99 C75 1.481 . S
C104 C56 1.481 . S
C113 C26 1.435 . S
C118 C37 1.482 . S
C127 C45 1.435 . S
C132 C15 1.215 . S
C141 C53 1.216 . S
C146 C42 1.903 . S
C155 C4 1.903 . S
C160 C61 1.903 . S
C169 C23 1.903 . S
C174 C72 1.215 . S
C183 C34 1.215 . S
C188 C17 1.188 . S
C197 C16 1.265 . S
C202 C35 1.266 . S
C211 C36 1.188 . S
C216 C55 1.189 . S
C225 C54 1.266 . S
C230 C74 1.189 . S
C239 C73 1.265 . S
