# Generated by pormake.
# Topology mmt, (4)-cn, num edge types: 1
# Building blocks:
#     Node 0, Type 0, BuildingBlock: N113, # of connection points: 4
#     Node 1, Type 0, BuildingBlock: N113, # of connection points: 4
#     Node 2, Type 0, BuildingBlock: N113, # of connection points: 4
#     Node 3, Type 0, BuildingBlock: N113, # of connection points: 4
#     Node 4, Type 0, BuildingBlock: N113, # of connection points: 4
#     Node 5, Type 0, BuildingBlock: N113, # of connection points: 4
#     Node 6, Type 0, BuildingBlock: N113, # of connection points: 4
#     Node 7, Type 0, BuildingBlock: N113, # of connection points: 4
#     Edge 8, Type (0, 0), BuildingBlock: E199, # of connection points: 2
#     Edge 9, Type (0, 0), BuildingBlock: E199, # of connection points: 2
#     Edge 10, Type (0, 0), BuildingBlock: E199, # of connection points: 2
#     Edge 11, Type (0, 0), BuildingBlock: E199, # of connection points: 2
#     Edge 12, Type (0, 0), BuildingBlock: E199, # of connection points: 2
#     Edge 13, Type (0, 0), BuildingBlock: E199, # of connection points: 2
#     Edge 14, Type (0, 0), BuildingBlock: E199, # of connection points: 2
#     Edge 15, Type (0, 0), BuildingBlock: E199, # of connection points: 2
#     Edge 16, Type (0, 0), BuildingBlock: E199, # of connection points: 2
#     Edge 17, Type (0, 0), BuildingBlock: E199, # of connection points: 2
#     Edge 18, Type (0, 0), BuildingBlock: E199, # of connection points: 2
#     Edge 19, Type (0, 0), BuildingBlock: E199, # of connection points: 2
#     Edge 20, Type (0, 0), BuildingBlock: E199, # of connection points: 2
#     Edge 21, Type (0, 0), BuildingBlock: E199, # of connection points: 2
#     Edge 22, Type (0, 0), BuildingBlock: E199, # of connection points: 2
#     Edge 23, Type (0, 0), BuildingBlock: E199, # of connection points: 2
# Relax obj value: 0.020
# Max RMSD: 0.051
# Mean RMSD: 0.051
data_mmt+N113+E199
_symmetry_space_group_name_H-M    P1
_symmetry_Int_Tables_number       1
_symmetry_cell_setting            triclinic
loop_
_symmetry_equiv_pos_as_xyz
'x, y, z'
_cell_length_a     17.702
_cell_length_b     28.213
_cell_length_c     32.595
_cell_angle_alpha  89.997
_cell_angle_beta   90.000
_cell_angle_gamma  90.000
loop_
_atom_site_label
_atom_site_type_symbol
_atom_site_fract_x
_atom_site_fract_y
_atom_site_fract_z
_atom_type_partial_charge
Co0 Co 0.86643 0.10333 0.23559 0.00000
O1 O 0.76084 0.01777 0.17248 0.00000
Co2 Co 0.84751 0.04877 0.14596 0.00000
O3 O 0.77017 0.06181 0.22909 0.00000
C4 C 0.91797 0.03895 0.07879 0.00000
O5 O 0.79631 0.11066 0.13644 0.00000
O6 O 0.83541 0.15228 0.19123 0.00000
C7 C 0.73725 0.03304 0.20650 0.00000
O8 O 0.94883 0.07022 0.10001 0.00000
C9 C 0.80832 0.14864 0.15606 0.00000
O10 O 0.85700 0.01924 0.08965 0.00000
C11 C 0.95665 0.02248 0.19139 0.00000
O12 O 0.92523 0.06399 0.18998 0.00000
O13 O 0.92888 0.98846 0.17312 0.00000
Co14 Co 0.86639 0.39667 0.73559 0.00000
O15 O 0.76081 0.48224 0.67247 0.00000
Co16 Co 0.84748 0.45123 0.64596 0.00000
O17 O 0.77013 0.43820 0.72909 0.00000
C18 C 0.91794 0.46106 0.57878 0.00000
O19 O 0.79628 0.38935 0.63644 0.00000
O20 O 0.83538 0.34773 0.69124 0.00000
C21 C 0.73722 0.46696 0.70650 0.00000
O22 O 0.94881 0.42978 0.60001 0.00000
C23 C 0.80829 0.35137 0.65607 0.00000
O24 O 0.85698 0.48076 0.58964 0.00000
C25 C 0.95662 0.47752 0.69138 0.00000
O26 O 0.92520 0.43601 0.68998 0.00000
O27 O 0.92885 0.51154 0.67312 0.00000
Co28 Co 0.36643 0.89667 0.26441 0.00000
O29 O 0.26084 0.98223 0.32752 0.00000
Co30 Co 0.34751 0.95123 0.35404 0.00000
O31 O 0.27017 0.93819 0.27091 0.00000
C32 C 0.41797 0.96105 0.42121 0.00000
O33 O 0.29631 0.88934 0.36356 0.00000
O34 O 0.33541 0.84772 0.30877 0.00000
C35 C 0.23725 0.96696 0.29350 0.00000
O36 O 0.44883 0.92978 0.39999 0.00000
C37 C 0.30832 0.85136 0.34394 0.00000
O38 O 0.35700 0.98076 0.41035 0.00000
C39 C 0.45665 0.97752 0.30861 0.00000
O40 O 0.42523 0.93601 0.31002 0.00000
O41 O 0.42888 0.01154 0.32688 0.00000
Co42 Co 0.63361 0.39667 0.23559 0.00000
O43 O 0.73919 0.48224 0.17247 0.00000
Co44 Co 0.65252 0.45123 0.14595 0.00000
O45 O 0.72987 0.43820 0.22909 0.00000
C46 C 0.58206 0.46106 0.07878 0.00000
O47 O 0.70372 0.38935 0.13644 0.00000
O48 O 0.66462 0.34773 0.19123 0.00000
C49 C 0.76278 0.46696 0.20650 0.00000
O50 O 0.55119 0.42978 0.10001 0.00000
C51 C 0.69171 0.35137 0.15606 0.00000
O52 O 0.64302 0.48076 0.08964 0.00000
C53 C 0.54338 0.47752 0.19138 0.00000
O54 O 0.57480 0.43601 0.18997 0.00000
O55 O 0.57115 0.51154 0.17311 0.00000
Co56 Co 0.13361 0.60333 0.26441 0.00000
O57 O 0.23919 0.51776 0.32753 0.00000
Co58 Co 0.15252 0.54877 0.35405 0.00000
O59 O 0.22987 0.56180 0.27091 0.00000
C60 C 0.08206 0.53894 0.42122 0.00000
O61 O 0.20372 0.61065 0.36356 0.00000
O62 O 0.16462 0.65227 0.30877 0.00000
C63 C 0.26278 0.53304 0.29350 0.00000
O64 O 0.05119 0.57022 0.39999 0.00000
C65 C 0.19171 0.64863 0.34394 0.00000
O66 O 0.14302 0.51924 0.41036 0.00000
C67 C 0.04338 0.52248 0.30862 0.00000
O68 O 0.07480 0.56399 0.31003 0.00000
O69 O 0.07115 0.48846 0.32689 0.00000
Co70 Co 0.63357 0.10333 0.73559 0.00000
O71 O 0.73916 0.01777 0.67248 0.00000
Co72 Co 0.65249 0.04877 0.64596 0.00000
O73 O 0.72983 0.06181 0.72909 0.00000
C74 C 0.58203 0.03895 0.57878 0.00000
O75 O 0.70369 0.11066 0.63644 0.00000
O76 O 0.66459 0.15228 0.69123 0.00000
C77 C 0.76275 0.03304 0.70650 0.00000
O78 O 0.55117 0.07022 0.60001 0.00000
C79 C 0.69168 0.14864 0.65606 0.00000
O80 O 0.64300 0.01925 0.58965 0.00000
C81 C 0.54335 0.02248 0.69138 0.00000
O82 O 0.57477 0.06399 0.68997 0.00000
O83 O 0.57112 0.98846 0.67312 0.00000
Co84 Co 0.36639 0.60333 0.76441 0.00000
O85 O 0.26081 0.51776 0.82753 0.00000
Co86 Co 0.34748 0.54877 0.85404 0.00000
O87 O 0.27013 0.56180 0.77091 0.00000
C88 C 0.41794 0.53894 0.92122 0.00000
O89 O 0.29628 0.61065 0.86356 0.00000
O90 O 0.33538 0.65227 0.80876 0.00000
C91 C 0.23722 0.53304 0.79350 0.00000
O92 O 0.44881 0.57022 0.89999 0.00000
C93 C 0.30829 0.64863 0.84393 0.00000
O94 O 0.35698 0.51924 0.91036 0.00000
C95 C 0.45662 0.52248 0.80862 0.00000
O96 O 0.42520 0.56399 0.81002 0.00000
O97 O 0.42885 0.48846 0.82688 0.00000
Co98 Co 0.13357 0.89667 0.76441 0.00000
O99 O 0.23916 0.98223 0.82752 0.00000
Co100 Co 0.15249 0.95123 0.85404 0.00000
O101 O 0.22983 0.93819 0.77091 0.00000
C102 C 0.08203 0.96105 0.92122 0.00000
O103 O 0.20369 0.88934 0.86356 0.00000
O104 O 0.16459 0.84772 0.80877 0.00000
C105 C 0.26275 0.96696 0.79350 0.00000
O106 O 0.05117 0.92978 0.89999 0.00000
C107 C 0.19168 0.85136 0.84394 0.00000
O108 O 0.14300 0.98076 0.91035 0.00000
C109 C 0.04335 0.97752 0.80862 0.00000
O110 O 0.07477 0.93601 0.81003 0.00000
O111 O 0.07112 0.01154 0.82688 0.00000
C112 C 0.69224 0.01883 0.23459 0.00000
H113 H 0.68553 0.05071 0.24669 0.00000
H114 H 0.73525 0.00332 0.24862 0.00000
C115 C 0.62205 0.99024 0.24146 0.00000
H116 H 0.61776 0.96000 0.22882 0.00000
C117 C 0.56635 0.00570 0.26436 0.00000
H118 H 0.56901 0.03699 0.27500 0.00000
C119 C 0.49915 0.97622 0.27436 0.00000
H120 H 0.45410 0.98887 0.26008 0.00000
H121 H 0.50744 0.94324 0.26503 0.00000
C122 C 0.67180 0.49763 0.71323 0.00000
H123 H 0.63322 0.49147 0.69194 0.00000
H124 H 0.69565 0.52859 0.70719 0.00000
C125 C 0.63440 0.49978 0.75442 0.00000
H126 H 0.66499 0.50187 0.77831 0.00000
C127 C 0.56071 0.49883 0.75848 0.00000
H128 H 0.53055 0.49402 0.73475 0.00000
C129 C 0.52243 0.50499 0.79876 0.00000
H130 H 0.49930 0.47465 0.80744 0.00000
H131 H 0.55973 0.51456 0.81980 0.00000
C132 C 0.18705 0.97430 0.26646 0.00000
H133 H 0.16551 0.94200 0.26499 0.00000
H134 H 0.22996 0.97603 0.24704 0.00000
C135 C 0.12803 0.00960 0.25413 0.00000
H136 H 0.13855 0.04246 0.25703 0.00000
C137 C 0.06226 0.99650 0.23948 0.00000
H138 H 0.05036 0.96369 0.23884 0.00000
C139 C 0.00553 0.03094 0.22384 0.00000
H140 H 0.96177 0.03225 0.24272 0.00000
H141 H 0.02819 0.06297 0.22235 0.00000
C142 C 0.82710 0.46727 0.22605 0.00000
H143 H 0.86532 0.45078 0.20913 0.00000
H144 H 0.80128 0.44329 0.24324 0.00000
C145 C 0.86570 0.50259 0.25323 0.00000
H146 H 0.83580 0.52376 0.26906 0.00000
C147 C 0.93952 0.50520 0.25579 0.00000
H148 H 0.96916 0.48586 0.23820 0.00000
C149 C 0.97873 0.53721 0.28514 0.00000
H150 H 0.00389 0.56322 0.27001 0.00000
H151 H 0.94159 0.55135 0.30426 0.00000
C152 C 0.49169 0.49831 0.21250 0.00000
H153 H 0.46681 0.51762 0.19109 0.00000
H154 H 0.53349 0.51723 0.22430 0.00000
C155 C 0.43570 0.48694 0.24554 0.00000
H156 H 0.44975 0.46552 0.26672 0.00000
C157 C 0.36787 0.50562 0.24609 0.00000
H158 H 0.35260 0.52484 0.22365 0.00000
C159 C 0.31388 0.49794 0.28042 0.00000
H160 H 0.27151 0.47773 0.27109 0.00000
H161 H 0.33967 0.48162 0.30336 0.00000
C162 C 0.98908 0.99853 0.78946 0.00000
H163 H 0.02076 0.01291 0.76778 0.00000
H164 H 0.98531 0.02143 0.81239 0.00000
C165 C 0.91176 0.98902 0.77269 0.00000
H166 H 0.87660 0.97191 0.78900 0.00000
C167 C 0.89115 0.00359 0.73615 0.00000
H168 H 0.92775 0.01828 0.71906 0.00000
C169 C 0.81279 0.99804 0.72039 0.00000
H170 H 0.81192 0.97420 0.69810 0.00000
H171 H 0.77923 0.98690 0.74268 0.00000
C172 C 0.03089 0.48683 0.70063 0.00000
H173 H 0.02637 0.52109 0.69468 0.00000
H174 H 0.05637 0.47155 0.67705 0.00000
C175 C 0.07780 0.48007 0.73844 0.00000
H176 H 0.08238 0.44919 0.74982 0.00000
C177 C 0.11269 0.51550 0.75631 0.00000
H178 H 0.10448 0.54666 0.74623 0.00000
C179 C 0.16460 0.50888 0.79174 0.00000
H180 H 0.14136 0.52202 0.81691 0.00000
H181 H 0.17398 0.47468 0.79618 0.00000
C182 C 0.46745 0.03057 0.70634 0.00000
H183 H 0.43631 0.01872 0.68333 0.00000
H184 H 0.46402 0.06559 0.70662 0.00000
C185 C 0.43708 0.01138 0.74590 0.00000
H186 H 0.46459 0.01673 0.77050 0.00000
C187 C 0.37370 0.98739 0.74758 0.00000
H188 H 0.34867 0.97981 0.72266 0.00000
C189 C 0.33941 0.97156 0.78693 0.00000
H190 H 0.34325 0.93666 0.78936 0.00000
H191 H 0.36680 0.98598 0.81027 0.00000
C192 C 0.96073 0.00987 0.05347 0.00000
H193 H 0.92436 0.98355 0.05008 0.00000
H194 H 0.99662 0.00104 0.07548 0.00000
C195 C 0.00321 0.01690 0.01418 0.00000
H196 H 0.03618 0.04333 0.01170 0.00000
C197 C 0.99621 0.98769 0.98311 0.00000
H198 H 0.96003 0.96292 0.98487 0.00000
C199 C 0.04263 0.99178 0.94524 0.00000
H200 H 0.01052 0.00217 0.92205 0.00000
H201 H 0.08287 0.01568 0.94929 0.00000
C202 C 0.02743 0.51609 0.44549 0.00000
H203 H 0.04067 0.48280 0.43927 0.00000
H204 H 0.98370 0.52502 0.42821 0.00000
C205 C 0.00593 0.52015 0.48981 0.00000
H206 H 0.99731 0.55070 0.50115 0.00000
C207 C 0.99870 0.48278 0.51343 0.00000
H208 H 0.01154 0.45259 0.50261 0.00000
C209 C 0.97120 0.48578 0.55648 0.00000
H210 H 0.01309 0.47879 0.57567 0.00000
H211 H 0.95261 0.51819 0.56222 0.00000
C212 C 0.43079 0.97300 0.46221 0.00000
H213 H 0.43040 0.94269 0.47745 0.00000
H214 H 0.37961 0.98701 0.46394 0.00000
C215 C 0.48657 0.00605 0.48162 0.00000
H216 H 0.49751 0.03533 0.46850 0.00000
C217 C 0.52079 0.99575 0.51618 0.00000
H218 H 0.51297 0.96536 0.52795 0.00000
C219 C 0.57136 0.02975 0.53769 0.00000
H220 H 0.62434 0.01868 0.53594 0.00000
H221 H 0.56810 0.06128 0.52450 0.00000
C222 C 0.56950 0.48404 0.04209 0.00000
H223 H 0.60171 0.46650 0.02250 0.00000
H224 H 0.59859 0.51160 0.05229 0.00000
C225 C 0.50007 0.50124 0.02042 0.00000
H226 H 0.46089 0.51561 0.03599 0.00000
C227 C 0.49172 0.49701 0.98061 0.00000
H228 H 0.52900 0.48023 0.96552 0.00000
C229 C 0.42624 0.51743 0.95813 0.00000
H230 H 0.39302 0.49165 0.94818 0.00000
H231 H 0.39646 0.53793 0.97672 0.00000
C232 C 0.76905 0.18538 0.15628 0.00000
H233 H 0.79426 0.19399 0.18231 0.00000
H234 H 0.72271 0.16734 0.16301 0.00000
C235 C 0.74790 0.22965 0.13363 0.00000
H236 H 0.72836 0.22710 0.10657 0.00000
C237 C 0.75561 0.27182 0.15004 0.00000
H238 H 0.77914 0.27438 0.17613 0.00000
C239 C 0.72900 0.31582 0.12945 0.00000
H240 H 0.77289 0.33499 0.12056 0.00000
H241 H 0.69891 0.30758 0.10487 0.00000
C242 C 0.78765 0.31053 0.62898 0.00000
H243 H 0.83650 0.29672 0.62039 0.00000
H244 H 0.76270 0.32386 0.60437 0.00000
C245 C 0.73887 0.27234 0.64682 0.00000
H246 H 0.69231 0.28083 0.65934 0.00000
C247 C 0.75853 0.22753 0.64571 0.00000
H248 H 0.80697 0.21950 0.63531 0.00000
C249 C 0.70805 0.18879 0.66009 0.00000
H250 H 0.72842 0.17479 0.68565 0.00000
H251 H 0.65716 0.20161 0.66599 0.00000
C252 C 0.31044 0.80551 0.35493 0.00000
H253 H 0.33376 0.79731 0.38157 0.00000
H254 H 0.35037 0.80457 0.33368 0.00000
C255 C 0.25078 0.76972 0.34478 0.00000
H256 H 0.21935 0.77488 0.32157 0.00000
C257 C 0.24060 0.73148 0.36698 0.00000
H258 H 0.26917 0.72781 0.39144 0.00000
C259 C 0.18612 0.69362 0.35543 0.00000
H260 H 0.14299 0.69359 0.37476 0.00000
H261 H 0.16640 0.69958 0.32749 0.00000
C262 C 0.30064 0.69233 0.84425 0.00000
H263 H 0.27503 0.68977 0.81737 0.00000
H264 H 0.35538 0.69653 0.83919 0.00000
C265 C 0.27084 0.73470 0.86675 0.00000
H266 H 0.28590 0.73976 0.89438 0.00000
C267 C 0.22453 0.76499 0.84944 0.00000
H268 H 0.20626 0.75835 0.82266 0.00000
C269 C 0.19947 0.80932 0.87006 0.00000
H270 H 0.14530 0.80692 0.87733 0.00000
H271 H 0.22866 0.81412 0.89562 0.00000
loop_
_geom_bond_atom_site_label_1
_geom_bond_atom_site_label_2
_geom_bond_distance
_geom_bond_site_symmetry_2
_ccdc_geom_bond_type
Co0 O3 2.079 . S
Co0 O6 2.073 . S
Co0 O12 2.128 . S
O1 Co2 1.966 . S
O1 C7 1.261 . A
Co2 O5 1.991 . S
Co2 O8 2.414 . S
Co2 O10 2.023 . S
Co2 O12 2.034 . S
Co2 O13 2.399 1_545 S
O3 C7 1.241 . A
C4 O8 1.247 . A
C4 O10 1.265 . A
O5 C9 1.266 . A
O6 C9 1.247 . A
C11 O12 1.297 . S
C11 O13 1.232 1_545 D
Co14 O17 2.079 . S
Co14 O20 2.073 . S
Co14 O26 2.128 . S
O15 Co16 1.966 . S
O15 C21 1.261 . A
Co16 O19 1.991 . S
Co16 O22 2.414 . S
Co16 O24 2.023 . S
Co16 O26 2.034 . S
Co16 O27 2.399 . S
O17 C21 1.241 . A
C18 O22 1.247 . A
C18 O24 1.265 . A
O19 C23 1.266 . A
O20 C23 1.247 . A
C25 O26 1.297 . S
C25 O27 1.232 . D
Co28 O31 2.079 . S
Co28 O34 2.073 . S
Co28 O40 2.128 . S
O29 Co30 1.966 . S
O29 C35 1.261 . A
Co30 O33 1.991 . S
Co30 O36 2.414 . S
Co30 O38 2.023 . S
Co30 O40 2.034 . S
Co30 O41 2.399 1_565 S
O31 C35 1.241 . A
C32 O36 1.247 . A
C32 O38 1.265 . A
O33 C37 1.266 . A
O34 C37 1.247 . A
C39 O40 1.297 . S
C39 O41 1.232 1_565 D
Co42 O45 2.079 . S
Co42 O48 2.073 . S
Co42 O54 2.128 . S
O43 Co44 1.966 . S
O43 C49 1.261 . A
Co44 O47 1.991 . S
Co44 O50 2.414 . S
Co44 O52 2.023 . S
Co44 O54 2.034 . S
Co44 O55 2.399 . S
O45 C49 1.241 . A
C46 O50 1.247 . A
C46 O52 1.265 . A
O47 C51 1.266 . A
O48 C51 1.247 . A
C53 O54 1.297 . S
C53 O55 1.232 . D
Co56 O59 2.079 . S
Co56 O62 2.073 . S
Co56 O68 2.128 . S
O57 Co58 1.966 . S
O57 C63 1.261 . A
Co58 O61 1.991 . S
Co58 O64 2.414 . S
Co58 O66 2.023 . S
Co58 O68 2.034 . S
Co58 O69 2.399 . S
O59 C63 1.241 . A
C60 O64 1.247 . A
C60 O66 1.265 . A
O61 C65 1.266 . A
O62 C65 1.247 . A
C67 O68 1.297 . S
C67 O69 1.232 . D
Co70 O73 2.079 . S
Co70 O76 2.073 . S
Co70 O82 2.128 . S
O71 Co72 1.966 . S
O71 C77 1.261 . A
Co72 O75 1.991 . S
Co72 O78 2.414 . S
Co72 O80 2.023 . S
Co72 O82 2.034 . S
Co72 O83 2.399 1_545 S
O73 C77 1.241 . A
C74 O78 1.247 . A
C74 O80 1.265 . A
O75 C79 1.266 . A
O76 C79 1.247 . A
C81 O82 1.297 . S
C81 O83 1.232 1_545 D
Co84 O87 2.079 . S
Co84 O90 2.073 . S
Co84 O96 2.128 . S
O85 Co86 1.966 . S
O85 C91 1.261 . A
Co86 O89 1.991 . S
Co86 O92 2.414 . S
Co86 O94 2.023 . S
Co86 O96 2.034 . S
Co86 O97 2.399 . S
O87 C91 1.241 . A
C88 O92 1.247 . A
C88 O94 1.265 . A
O89 C93 1.266 . A
O90 C93 1.247 . A
C95 O96 1.297 . S
C95 O97 1.232 . D
Co98 O101 2.079 . S
Co98 O104 2.073 . S
Co98 O110 2.128 . S
O99 Co100 1.966 . S
O99 C105 1.261 . A
Co100 O103 1.991 . S
Co100 O106 2.414 . S
Co100 O108 2.023 . S
Co100 O110 2.034 . S
Co100 O111 2.399 1_565 S
O101 C105 1.241 . A
C102 O106 1.247 . A
C102 O108 1.265 . A
O103 C107 1.266 . A
O104 C107 1.247 . A
C109 O110 1.297 . S
C109 O111 1.232 1_565 D
C112 H113 0.989 . S
C112 H114 0.990 . S
C112 C115 1.498 1_545 S
C115 H116 0.950 . S
C115 C117 1.312 1_565 D
C117 H118 0.950 . S
C117 C119 1.488 1_545 S
C119 H120 0.990 . S
C119 H121 0.990 . S
C122 H123 0.989 . S
C122 H124 0.990 . S
C122 C125 1.498 . S
C125 H126 0.950 . S
C125 C127 1.312 . D
C127 H128 0.950 . S
C127 C129 1.488 . S
C129 H130 0.990 . S
C129 H131 0.990 . S
C132 H133 0.989 . S
C132 H134 0.990 . S
C132 C135 1.498 1_565 S
C135 H136 0.950 . S
C135 C137 1.312 1_545 D
C137 H138 0.950 . S
C137 C139 1.488 1_565 S
C139 H140 0.990 1_455 S
C139 H141 0.990 . S
C142 H143 0.989 . S
C142 H144 0.990 . S
C142 C145 1.498 . S
C145 H146 0.950 . S
C145 C147 1.312 . D
C147 H148 0.950 . S
C147 C149 1.488 . S
C149 H150 0.990 1_655 S
C149 H151 0.990 . S
C152 H153 0.989 . S
C152 H154 0.990 . S
C152 C155 1.498 . S
C155 H156 0.950 . S
C155 C157 1.312 . D
C157 H158 0.950 . S
C157 C159 1.488 . S
C159 H160 0.990 . S
C159 H161 0.990 . S
C162 H163 0.989 1_665 S
C162 H164 0.990 1_565 S
C162 C165 1.498 . S
C165 H166 0.950 . S
C165 C167 1.312 1_565 D
C167 H168 0.950 . S
C167 C169 1.488 1_545 S
C169 H170 0.990 . S
C169 H171 0.990 . S
C172 H173 0.989 . S
C172 H174 0.990 . S
C172 C175 1.498 . S
C175 H176 0.950 . S
C175 C177 1.312 . D
C177 H178 0.950 . S
C177 C179 1.488 . S
C179 H180 0.990 . S
C179 H181 0.990 . S
C182 H183 0.989 . S
C182 H184 0.990 . S
C182 C185 1.498 . S
C185 H186 0.950 . S
C185 C187 1.312 1_545 D
C187 H188 0.950 . S
C187 C189 1.488 . S
C189 H190 0.990 . S
C189 H191 0.990 . S
C192 H193 0.989 1_545 S
C192 H194 0.990 . S
C192 C195 1.498 1_655 S
C195 H196 0.950 . S
C195 C197 1.312 1_444 D
C197 H198 0.950 . S
C197 C199 1.488 1_655 S
C199 H200 0.990 1_565 S
C199 H201 0.990 1_565 S
C202 H203 0.989 . S
C202 H204 0.990 1_455 S
C202 C205 1.498 . S
C205 H206 0.950 1_455 S
C205 C207 1.312 1_455 D
C207 H208 0.950 1_655 S
C207 C209 1.488 . S
C209 H210 0.990 1_655 S
C209 H211 0.990 . S
C212 H213 0.989 . S
C212 H214 0.990 . S
C212 C215 1.498 1_565 S
C215 H216 0.950 . S
C215 C217 1.312 1_545 D
C217 H218 0.950 . S
C217 C219 1.488 1_565 S
C219 H220 0.990 . S
C219 H221 0.990 . S
C222 H223 0.989 . S
C222 H224 0.990 . S
C222 C225 1.498 . S
C225 H226 0.950 . S
C225 C227 1.312 1_554 D
C227 H228 0.950 . S
C227 C229 1.488 . S
C229 H230 0.990 . S
C229 H231 0.990 . S
C232 H233 0.989 . S
C232 H234 0.990 . S
C232 C235 1.498 . S
C235 H236 0.950 . S
C235 C237 1.312 . D
C237 H238 0.950 . S
C237 C239 1.488 . S
C239 H240 0.990 . S
C239 H241 0.990 . S
C242 H243 0.989 . S
C242 H244 0.990 . S
C242 C245 1.498 . S
C245 H246 0.950 . S
C245 C247 1.312 . D
C247 H248 0.950 . S
C247 C249 1.488 . S
C249 H250 0.990 . S
C249 H251 0.990 . S
C252 H253 0.989 . S
C252 H254 0.990 . S
C252 C255 1.498 . S
C255 H256 0.950 . S
C255 C257 1.312 . D
C257 H258 0.950 . S
C257 C259 1.488 . S
C259 H260 0.990 . S
C259 H261 0.990 . S
C262 H263 0.989 . S
C262 H264 0.990 . S
C262 C265 1.498 . S
C265 H266 0.950 . S
C265 C267 1.312 . D
C267 H268 0.950 . S
C267 C269 1.488 . S
C269 H270 0.990 . S
C269 H271 0.990 . S
C112 C7 1.278 . S
C119 C39 1.347 . S
C122 C21 1.462 . S
C129 C95 1.305 . S
C132 C35 1.269 . S
C139 C11 1.387 1_455 S
C142 C49 1.305 . S
C149 C67 1.438 1_655 S
C152 C53 1.287 . S
C159 C63 1.407 . S
C162 C109 1.290 1_655 S
C169 C77 1.402 1_565 S
C172 C25 1.374 1_455 S
C179 C91 1.456 . S
C182 C81 1.447 . S
C189 C105 1.380 . S
C192 C4 1.388 . S
C199 C102 1.361 . S
C202 C60 1.406 . S
C209 C18 1.380 . S
C212 C32 1.397 . S
C219 C74 1.377 . S
C222 C46 1.379 . S
C229 C88 1.355 . S
C232 C9 1.248 . S
C239 C51 1.481 . S
C242 C23 1.497 . S
C249 C79 1.177 . S
C252 C37 1.343 . S
C259 C65 1.327 . S
C262 C93 1.240 . S
C269 C107 1.467 . S
