# Generated by pormake.
# Topology nbo, (4)-cn, num edge types: 1
# Building blocks:
#     Node 0, Type 0, BuildingBlock: N651, # of connection points: 5
#     Node 1, Type 0, BuildingBlock: N651, # of connection points: 5
#     Node 2, Type 0, BuildingBlock: N651, # of connection points: 5
#     Node 3, Type 0, BuildingBlock: N651, # of connection points: 5
#     Node 4, Type 0, BuildingBlock: N651, # of connection points: 5
#     Node 5, Type 0, BuildingBlock: N651, # of connection points: 5
#     Edge 6, Type (0, 0), BuildingBlock: E162, # of connection points: 2
#     Edge 7, Type (0, 0), BuildingBlock: E162, # of connection points: 2
#     Edge 8, Type (0, 0), BuildingBlock: E162, # of connection points: 2
#     Edge 9, Type (0, 0), BuildingBlock: E162, # of connection points: 2
#     Edge 10, Type (0, 0), BuildingBlock: E162, # of connection points: 2
#     Edge 11, Type (0, 0), BuildingBlock: E162, # of connection points: 2
#     Edge 12, Type (0, 0), BuildingBlock: E162, # of connection points: 2
#     Edge 13, Type (0, 0), BuildingBlock: E162, # of connection points: 2
#     Edge 14, Type (0, 0), BuildingBlock: E162, # of connection points: 2
#     Edge 15, Type (0, 0), BuildingBlock: E162, # of connection points: 2
#     Edge 16, Type (0, 0), BuildingBlock: E162, # of connection points: 2
#     Edge 17, Type (0, 0), BuildingBlock: E162, # of connection points: 2
# Relax obj value: 0.019
# Max RMSD: 0.241
# Mean RMSD: 0.228
data_nbo+N651+E162
_symmetry_space_group_name_H-M    P1
_symmetry_Int_Tables_number       1
_symmetry_cell_setting            triclinic
loop_
_symmetry_equiv_pos_as_xyz
'x, y, z'
_cell_length_a     21.821
_cell_length_b     20.742
_cell_length_c     20.743
_cell_angle_alpha  93.718
_cell_angle_beta   93.497
_cell_angle_gamma  93.483
loop_
_atom_site_label
_atom_site_type_symbol
_atom_site_fract_x
_atom_site_fract_y
_atom_site_fract_z
_atom_type_partial_charge
Zn0 Zn 0.15414 0.61017 0.00739 0.00000
Zn1 Zn 0.04547 0.61627 0.10377 0.00000
C2 C 0.13523 0.72430 0.09190 0.00000
Zn3 Zn 0.05444 0.47882 0.00857 0.00000
O4 O 0.97489 0.62008 0.04357 0.00000
O5 O 0.96946 0.51853 0.00583 0.00000
O6 O 0.23578 0.58624 0.98391 0.00000
O7 O 0.23666 0.56265 0.08333 0.00000
O8 O 0.16245 0.69973 0.04770 0.00000
O9 O 0.00872 0.59898 0.18529 0.00000
O10 O 0.10079 0.57027 0.20383 0.00000
O11 O 0.08767 0.70393 0.11401 0.00000
C12 C 0.94778 0.57144 0.01280 0.00000
O13 O 0.06800 0.51300 0.91844 0.00000
O14 O 0.10901 0.61255 0.92463 0.00000
O15 O 0.10020 0.55761 0.05974 0.00000
C16 C 0.26014 0.56407 0.03339 0.00000
C17 C 0.05005 0.57586 0.21972 0.00000
C18 C 0.08134 0.56394 0.89434 0.00000
Zn19 Zn 0.52624 0.08564 0.19420 0.00000
Zn20 Zn 0.53303 0.18187 0.08019 0.00000
C21 C 0.63450 0.17068 0.17630 0.00000
Zn22 Zn 0.40282 0.08601 0.08725 0.00000
O23 O 0.53825 0.12163 0.00602 0.00000
O24 O 0.44198 0.08336 0.99860 0.00000
O25 O 0.50234 0.06215 0.27957 0.00000
O26 O 0.47912 0.16141 0.28020 0.00000
O27 O 0.61103 0.12640 0.20445 0.00000
O28 O 0.51654 0.26322 0.04136 0.00000
O29 O 0.48761 0.28172 0.13766 0.00000
O30 O 0.61570 0.19262 0.12601 0.00000
C31 C 0.49262 0.09058 0.97669 0.00000
O32 O 0.43582 0.99611 0.10197 0.00000
O33 O 0.52986 0.00287 0.14673 0.00000
O34 O 0.47668 0.13762 0.13669 0.00000
C35 C 0.48048 0.11153 0.30485 0.00000
C36 C 0.49361 0.29757 0.08444 0.00000
C37 C 0.48428 0.97231 0.11682 0.00000
Zn38 Zn 0.15876 0.00407 0.59195 0.00000
Zn39 Zn 0.04924 0.09930 0.58271 0.00000
C40 C 0.12717 0.07118 0.47631 0.00000
Zn41 Zn 0.07348 0.02503 0.72167 0.00000
O42 O 0.97823 0.03852 0.57868 0.00000
O43 O 0.98404 0.01619 0.68067 0.00000
O44 O 0.24314 0.98432 0.61751 0.00000
O45 O 0.24653 0.08721 0.63963 0.00000
O46 O 0.15716 0.03077 0.50195 0.00000
O47 O 0.01429 0.18332 0.59821 0.00000
O48 O 0.10960 0.20628 0.62808 0.00000
O49 O 0.08180 0.09631 0.49559 0.00000
C50 C 0.95649 0.01512 0.62734 0.00000
O51 O 0.08335 0.92984 0.68905 0.00000
O52 O 0.11340 0.92099 0.59008 0.00000
O53 O 0.11053 0.06426 0.64286 0.00000
C54 C 0.26992 0.03713 0.63932 0.00000
C55 C 0.05818 0.22125 0.62146 0.00000
C56 C 0.09111 0.89806 0.63869 0.00000
Zn57 Zn 0.65218 0.59266 0.99990 0.00000
Zn58 Zn 0.54271 0.68817 0.99319 0.00000
C59 C 0.61888 0.66104 0.88506 0.00000
Zn60 Zn 0.56901 0.61240 0.13089 0.00000
O61 O 0.47169 0.62746 0.98974 0.00000
O62 O 0.47905 0.60406 0.09139 0.00000
O63 O 0.73683 0.57255 0.02323 0.00000
O64 O 0.74063 0.67528 0.04645 0.00000
O65 O 0.64921 0.62031 0.90971 0.00000
O66 O 0.50810 0.77212 0.01027 0.00000
O67 O 0.60377 0.79469 0.03870 0.00000
O68 O 0.57388 0.68603 0.90544 0.00000
C69 C 0.45071 0.60356 0.03853 0.00000
O70 O 0.57831 0.51746 0.09702 0.00000
O71 O 0.60679 0.50958 0.99740 0.00000
O72 O 0.60483 0.65242 0.05186 0.00000
C73 C 0.76395 0.62515 0.04516 0.00000
C74 C 0.55232 0.80980 0.03317 0.00000
C75 C 0.58526 0.48617 0.04615 0.00000
Zn76 Zn 0.99376 0.48953 0.59710 0.00000
Zn77 Zn 0.98711 0.60367 0.50101 0.00000
C78 C 0.88466 0.50925 0.51400 0.00000
Zn79 Zn 0.11843 0.59441 0.59454 0.00000
O80 O 0.98394 0.67805 0.56146 0.00000
O81 O 0.08069 0.68383 0.59799 0.00000
O82 O 0.01673 0.40368 0.62011 0.00000
O83 O 0.03832 0.40254 0.52033 0.00000
O84 O 0.90837 0.48070 0.55786 0.00000
O85 O 0.00284 0.64216 0.41931 0.00000
O86 O 0.03001 0.54524 0.40018 0.00000
O87 O 0.90380 0.55924 0.49174 0.00000
C88 C 0.03037 0.70664 0.59171 0.00000
O89 O 0.08672 0.58034 0.68512 0.00000
O90 O 0.99214 0.53719 0.68005 0.00000
O91 O 0.04321 0.54617 0.54421 0.00000
C92 C 0.03739 0.37794 0.57026 0.00000
C93 C 0.02454 0.59860 0.38448 0.00000
C94 C 0.03854 0.56635 0.70983 0.00000
Zn95 Zn 0.65884 0.01335 0.59656 0.00000
Zn96 Zn 0.55048 0.02307 0.69301 0.00000
C97 C 0.64138 0.12947 0.67881 0.00000
Zn98 Zn 0.55775 0.88356 0.60056 0.00000
O99 O 0.47993 0.02656 0.63272 0.00000
O100 O 0.47330 0.92437 0.59705 0.00000
O101 O 0.74010 0.98777 0.57348 0.00000
O102 O 0.74085 0.96635 0.67352 0.00000
O103 O 0.66823 0.10358 0.63504 0.00000
O104 O 0.51369 0.00808 0.77503 0.00000
O105 O 0.60538 0.97851 0.79412 0.00000
O106 O 0.59366 0.11027 0.70141 0.00000
C107 C 0.45224 0.97768 0.60294 0.00000
O108 O 0.57155 0.91555 0.50959 0.00000
O109 O 0.61366 0.01456 0.51368 0.00000
O110 O 0.60443 0.96274 0.65011 0.00000
C111 C 0.76426 0.96636 0.62347 0.00000
C112 C 0.55476 0.98515 0.80995 0.00000
C113 C 0.58543 0.96573 0.48439 0.00000
H114 H 0.08263 0.68422 0.81500 0.00000
H115 H 0.09828 0.67997 0.74598 0.00000
N116 N 0.08341 0.66218 0.77853 0.00000
H117 H 0.09427 0.56895 0.76087 0.00000
H118 H 0.99784 0.58866 0.84169 0.00000
H119 H 0.02187 0.52122 0.82103 0.00000
C120 C 0.05944 0.59433 0.77163 0.00000
C121 C 0.03414 0.56666 0.83087 0.00000
H122 H 0.58145 0.11797 0.43536 0.00000
H123 H 0.56971 0.14518 0.37134 0.00000
N124 N 0.56371 0.11472 0.39701 0.00000
H125 H 0.54209 0.03673 0.33830 0.00000
H126 H 0.49407 0.02391 0.45939 0.00000
H127 H 0.48931 0.97003 0.40246 0.00000
C128 C 0.52323 0.05745 0.37525 0.00000
C129 C 0.51504 0.00622 0.42307 0.00000
H130 H 0.94819 0.59202 0.28188 0.00000
H131 H 0.93778 0.57826 0.35012 0.00000
N132 N 0.96224 0.58212 0.31934 0.00000
H133 H 0.02983 0.52685 0.34212 0.00000
H134 H 0.06900 0.62425 0.26362 0.00000
H135 H 0.10918 0.56929 0.28744 0.00000
C136 C 0.02776 0.57184 0.33095 0.00000
C137 C 0.06763 0.57953 0.27460 0.00000
H138 H 0.80829 0.48541 0.01086 0.00000
H139 H 0.76314 0.50014 0.05998 0.00000
N140 N 0.79453 0.51189 0.03929 0.00000
H141 H 0.83967 0.57978 0.09811 0.00000
H142 H 0.86551 0.59456 0.96903 0.00000
H143 H 0.89607 0.63710 0.02897 0.00000
C144 C 0.82437 0.57706 0.05259 0.00000
C145 C 0.87908 0.59401 0.01432 0.00000
H146 H 0.56422 0.11175 0.82886 0.00000
H147 H 0.51153 0.15012 0.84694 0.00000
N148 N 0.53094 0.11526 0.84861 0.00000
H149 H 0.46669 0.04784 0.86434 0.00000
H150 H 0.58351 0.01386 0.90846 0.00000
H151 H 0.52248 0.97015 0.90929 0.00000
C152 C 0.50717 0.06203 0.88515 0.00000
C153 C 0.54381 0.00258 0.88577 0.00000
H154 H 0.35752 0.93019 0.70945 0.00000
H155 H 0.32007 0.97715 0.74442 0.00000
N156 N 0.33915 0.96572 0.71080 0.00000
H157 H 0.36121 0.04817 0.67268 0.00000
H158 H 0.35371 0.94390 0.57904 0.00000
H159 H 0.37390 0.01566 0.56698 0.00000
C160 C 0.34019 0.00687 0.65597 0.00000
C161 C 0.37456 0.98349 0.59884 0.00000
H162 H 0.00165 0.85271 0.52627 0.00000
H163 H 0.99483 0.91210 0.56897 0.00000
N164 N 0.00780 0.87386 0.56338 0.00000
H165 H 0.01111 0.84144 0.65093 0.00000
H166 H 0.09273 0.77956 0.57215 0.00000
H167 H 0.08038 0.76313 0.64305 0.00000
C168 C 0.04035 0.84498 0.61716 0.00000
C169 C 0.06165 0.77782 0.60351 0.00000
H170 H 0.83317 0.06065 0.54160 0.00000
H171 H 0.78894 0.00982 0.50829 0.00000
N172 N 0.81592 0.02211 0.53939 0.00000
H173 H 0.84983 0.94081 0.56540 0.00000
H174 H 0.86344 0.03703 0.66739 0.00000
H175 H 0.88848 0.96794 0.66939 0.00000
C176 C 0.83231 0.97728 0.58851 0.00000
C177 C 0.87995 0.00245 0.64147 0.00000
H178 H 0.02171 0.33117 0.71262 0.00000
H179 H 0.00701 0.26240 0.72598 0.00000
N180 N 0.02083 0.29059 0.70085 0.00000
H181 H 0.00743 0.24669 0.61326 0.00000
H182 H 0.10323 0.34354 0.61843 0.00000
H183 H 0.07748 0.30179 0.55590 0.00000
C184 C 0.04287 0.26927 0.63808 0.00000
C185 C 0.06642 0.32159 0.59683 0.00000
H186 H 0.55789 0.94118 0.98572 0.00000
H187 H 0.61342 0.90282 0.98930 0.00000
N188 N 0.57889 0.91283 0.00395 0.00000
H189 H 0.58658 0.89330 0.09596 0.00000
H190 H 0.46300 0.88830 0.04940 0.00000
H191 H 0.48610 0.87949 0.12109 0.00000
C192 C 0.55603 0.88147 0.05993 0.00000
C193 C 0.49516 0.90160 0.08270 0.00000
H194 H 0.32309 0.68288 0.05605 0.00000
H195 H 0.37973 0.69326 0.10032 0.00000
N196 N 0.35667 0.66904 0.07217 0.00000
H197 H 0.37605 0.58002 0.09076 0.00000
H198 H 0.33131 0.58578 0.96189 0.00000
H199 H 0.34758 0.52244 0.99456 0.00000
C200 C 0.37479 0.60429 0.05181 0.00000
C201 C 0.33195 0.56481 0.00229 0.00000
H202 H 0.43157 0.41726 0.01231 0.00000
H203 H 0.41116 0.34713 0.00552 0.00000
N204 N 0.43813 0.37776 0.01926 0.00000
H205 H 0.51652 0.33487 0.02436 0.00000
H206 H 0.52165 0.44610 0.10920 0.00000
H207 H 0.57659 0.40249 0.09747 0.00000
C208 C 0.49512 0.36246 0.05452 0.00000
C209 C 0.54007 0.41881 0.07705 0.00000
loop_
_geom_bond_atom_site_label_1
_geom_bond_atom_site_label_2
_geom_bond_distance
_geom_bond_site_symmetry_2
_ccdc_geom_bond_type
Zn0 O6 1.959 1_554 S
Zn0 O8 1.980 . S
Zn0 O14 1.931 1_554 S
Zn0 O15 1.976 . S
Zn1 O4 1.931 1_455 S
Zn1 O9 1.960 . S
Zn1 O11 1.980 . S
Zn1 O15 1.976 . S
C2 O8 1.223 . A
C2 O11 1.223 . A
Zn3 O5 2.073 1_455 S
Zn3 O13 2.073 1_554 S
Zn3 O15 2.059 . S
O4 C12 1.254 . A
O5 C12 1.225 . A
O6 C16 1.254 1_556 S
O7 C16 1.185 . D
O9 C17 1.254 . S
O10 C17 1.185 . D
O13 C18 1.225 . A
O14 C18 1.254 . A
Zn19 O25 1.959 . S
Zn19 O27 1.980 . S
Zn19 O33 1.931 . S
Zn19 O34 1.976 . S
Zn20 O23 1.931 . S
Zn20 O28 1.960 . S
Zn20 O30 1.980 . S
Zn20 O34 1.976 . S
C21 O27 1.223 . A
C21 O30 1.223 . A
Zn22 O24 2.073 1_554 S
Zn22 O32 2.073 1_545 S
Zn22 O34 2.059 . S
O23 C31 1.254 1_554 A
O24 C31 1.225 . A
O25 C35 1.254 . S
O26 C35 1.185 . D
O28 C36 1.254 . S
O29 C36 1.185 . D
O32 C37 1.225 . A
O33 C37 1.254 1_545 A
Zn38 O44 1.959 1_545 S
Zn38 O46 1.980 . S
Zn38 O52 1.931 1_545 S
Zn38 O53 1.976 . S
Zn39 O42 1.931 1_455 S
Zn39 O47 1.960 . S
Zn39 O49 1.980 . S
Zn39 O53 1.976 . S
C40 O46 1.223 . A
C40 O49 1.223 . A
Zn41 O43 2.073 1_455 S
Zn41 O51 2.073 1_545 S
Zn41 O53 2.059 . S
O42 C50 1.254 . A
O43 C50 1.225 . A
O44 C54 1.254 1_565 S
O45 C54 1.185 . D
O47 C55 1.254 . S
O48 C55 1.185 . D
O51 C56 1.225 . A
O52 C56 1.254 . A
Zn57 O63 1.957 1_556 S
Zn57 O65 1.990 . S
Zn57 O71 1.931 . S
Zn57 O72 1.971 1_556 S
Zn58 O61 1.931 . S
Zn58 O66 1.960 1_556 S
Zn58 O68 1.980 . S
Zn58 O72 1.976 1_556 S
C59 O65 1.223 . A
C59 O68 1.223 . A
Zn60 O62 2.073 . S
Zn60 O70 2.073 . S
Zn60 O72 2.059 . S
O61 C69 1.254 1_556 A
O62 C69 1.225 . A
O63 C73 1.254 . S
O64 C73 1.185 . D
O66 C74 1.254 . S
O67 C74 1.185 . D
O70 C75 1.225 . A
O71 C75 1.254 1_556 A
Zn76 O82 1.959 1_655 S
Zn76 O84 1.980 . S
Zn76 O90 1.931 . S
Zn76 O91 1.976 1_655 S
Zn77 O80 1.931 . S
Zn77 O85 1.960 1_655 S
Zn77 O87 1.980 . S
Zn77 O91 1.976 1_655 S
C78 O84 1.223 . A
C78 O87 1.223 . A
Zn79 O81 2.073 . S
Zn79 O89 2.073 . S
Zn79 O91 2.059 . S
O80 C88 1.254 1_655 A
O81 C88 1.225 . A
O82 C92 1.254 . S
O83 C92 1.185 . D
O85 C93 1.254 . S
O86 C93 1.185 . D
O89 C94 1.225 . A
O90 C94 1.254 1_655 A
Zn95 O101 1.959 1_545 S
Zn95 O103 1.980 . S
Zn95 O109 1.931 . S
Zn95 O110 1.976 1_545 S
Zn96 O99 1.931 . S
Zn96 O104 1.960 . S
Zn96 O106 1.980 . S
Zn96 O110 1.976 1_545 S
C97 O103 1.223 . A
C97 O106 1.223 . A
Zn98 O100 2.073 . S
Zn98 O108 2.073 . S
Zn98 O110 2.059 . S
O99 C107 1.254 1_545 A
O100 C107 1.225 . A
O101 C111 1.254 . S
O102 C111 1.185 . D
O104 C112 1.254 1_545 S
O105 C112 1.185 . D
O108 C113 1.225 . A
O109 C113 1.254 1_545 A
H114 N116 0.860 . S
H115 N116 0.861 . S
N116 C120 1.466 . S
H117 C120 0.979 . S
H118 C121 0.969 1_655 S
H119 C121 0.969 . S
C120 C121 1.510 . S
H122 N124 0.860 . S
H123 N124 0.861 . S
N124 C128 1.466 . S
H125 C128 0.979 . S
H126 C129 0.969 . S
H127 C129 0.969 1_565 S
C128 C129 1.510 . S
H130 N132 0.860 . S
H131 N132 0.861 . S
N132 C136 1.466 1_655 S
H133 C136 0.979 . S
H134 C137 0.969 . S
H135 C137 0.969 . S
C136 C137 1.510 . S
H138 N140 0.860 . S
H139 N140 0.861 . S
N140 C144 1.466 . S
H141 C144 0.979 . S
H142 C145 0.969 1_556 S
H143 C145 0.969 . S
C144 C145 1.510 . S
H146 N148 0.860 . S
H147 N148 0.861 . S
N148 C152 1.466 . S
H149 C152 0.979 . S
H150 C153 0.969 . S
H151 C153 0.969 1_565 S
C152 C153 1.510 . S
H154 N156 0.860 . S
H155 N156 0.861 . S
N156 C160 1.466 1_565 S
H157 C160 0.979 . S
H158 C161 0.969 . S
H159 C161 0.969 1_545 S
C160 C161 1.510 1_545 S
H162 N164 0.860 . S
H163 N164 0.861 1_655 S
N164 C168 1.466 . S
H165 C168 0.979 . S
H166 C169 0.969 . S
H167 C169 0.969 . S
C168 C169 1.510 . S
H170 N172 0.860 . S
H171 N172 0.861 . S
N172 C176 1.466 1_545 S
H173 C176 0.979 . S
H174 C177 0.969 . S
H175 C177 0.969 1_565 S
C176 C177 1.510 1_565 S
H178 N180 0.860 . S
H179 N180 0.861 . S
N180 C184 1.466 . S
H181 C184 0.979 . S
H182 C185 0.969 . S
H183 C185 0.969 . S
C184 C185 1.510 . S
H186 N188 0.860 1_556 S
H187 N188 0.861 1_556 S
N188 C192 1.466 . S
H189 C192 0.979 . S
H190 C193 0.969 . S
H191 C193 0.969 . S
C192 C193 1.510 . S
H194 N196 0.860 . S
H195 N196 0.861 . S
N196 C200 1.466 . S
H197 C200 0.979 . S
H198 C201 0.969 1_556 S
H199 C201 0.969 1_556 S
C200 C201 1.510 . S
H202 N204 0.860 . S
H203 N204 0.861 . S
N204 C208 1.466 . S
H205 C208 0.979 . S
H206 C209 0.969 . S
H207 C209 0.969 . S
C208 C209 1.510 . S
C120 C94 1.410 . S
C121 C18 1.628 . S
C128 C35 2.106 . S
C129 C113 2.177 1_545 S
C136 C93 1.216 . S
C137 C17 1.175 . S
C144 C73 1.706 . S
C145 C12 1.599 . S
C152 C31 2.002 . S
C153 C112 1.626 1_545 S
C160 C54 1.716 . S
C161 C107 1.704 . S
C168 C56 1.538 . S
C169 C88 1.586 . S
C176 C111 1.701 . S
C177 C50 1.721 . S
C184 C55 1.110 . S
C185 C92 1.484 . S
C192 C74 1.548 . S
C193 C37 1.624 . S
C200 C69 1.697 . S
C201 C16 1.730 . S
C208 C36 1.518 . S
C209 C75 1.833 . S
