# Generated by pormake.
# Topology snm, (6)-cn, num edge types: 1
# Building blocks:
#     Node 0, Type 0, BuildingBlock: N278, # of connection points: 6
#     Node 1, Type 0, BuildingBlock: N278, # of connection points: 6
#     Node 2, Type 0, BuildingBlock: N278, # of connection points: 6
#     Node 3, Type 0, BuildingBlock: N278, # of connection points: 6
#     Edge 4, Type (0, 0), BuildingBlock: E139, # of connection points: 2
#     Edge 5, Type (0, 0), BuildingBlock: E139, # of connection points: 2
#     Edge 6, Type (0, 0), BuildingBlock: E139, # of connection points: 2
#     Edge 7, Type (0, 0), BuildingBlock: E139, # of connection points: 2
#     Edge 8, Type (0, 0), BuildingBlock: E139, # of connection points: 2
#     Edge 9, Type (0, 0), BuildingBlock: E139, # of connection points: 2
#     Edge 10, Type (0, 0), BuildingBlock: E139, # of connection points: 2
#     Edge 11, Type (0, 0), BuildingBlock: E139, # of connection points: 2
#     Edge 12, Type (0, 0), BuildingBlock: E139, # of connection points: 2
#     Edge 13, Type (0, 0), BuildingBlock: E139, # of connection points: 2
#     Edge 14, Type (0, 0), BuildingBlock: E139, # of connection points: 2
#     Edge 15, Type (0, 0), BuildingBlock: E139, # of connection points: 2
# Relax obj value: 0.151
# Max RMSD: 0.269
# Mean RMSD: 0.267
data_snm+N278+E139
_symmetry_space_group_name_H-M    P1
_symmetry_Int_Tables_number       1
_symmetry_cell_setting            triclinic
loop_
_symmetry_equiv_pos_as_xyz
'x, y, z'
_cell_length_a     19.706
_cell_length_b     19.703
_cell_length_c     11.529
_cell_angle_alpha  95.847
_cell_angle_beta   95.847
_cell_angle_gamma  90.178
loop_
_atom_site_label
_atom_site_type_symbol
_atom_site_fract_x
_atom_site_fract_y
_atom_site_fract_z
_atom_type_partial_charge
O0 O 0.81388 0.04331 0.73685 0.00000
O1 O 0.74801 0.12641 0.80568 0.00000
O2 O 0.62462 0.09239 0.95339 0.00000
O3 O 0.61663 0.98051 0.91655 0.00000
O4 O 0.78710 0.04690 0.02663 0.00000
O5 O 0.73281 0.07230 0.18784 0.00000
C6 C 0.59048 0.03724 0.94431 0.00000
Cd7 Cd 0.66980 0.15568 0.12361 0.00000
O8 O 0.65740 0.01124 0.67335 0.00000
Cd9 Cd 0.71631 0.02358 0.86345 0.00000
Cd10 Cd 0.76105 0.96734 0.59360 0.00000
O11 O 0.75039 0.91437 0.83889 0.00000
O12 O 0.81310 0.88931 0.68816 0.00000
O13 O 0.65505 0.91342 0.56042 0.00000
C14 C 0.77529 0.03931 0.13252 0.00000
O15 O 0.82298 0.97218 0.43645 0.00000
O16 O 0.74791 0.05374 0.46907 0.00000
C17 C 0.62551 0.96022 0.62024 0.00000
C18 C 0.79236 0.87888 0.78615 0.00000
C19 C 0.79402 0.02919 0.41410 0.00000
C20 C 0.79706 0.10447 0.74775 0.00000
O21 O 0.98080 0.21019 0.61456 0.00000
O22 O 0.89771 0.27607 0.54572 0.00000
O23 O 0.93173 0.39947 0.39802 0.00000
O24 O 0.04360 0.40746 0.43486 0.00000
O25 O 0.97721 0.23697 0.32478 0.00000
O26 O 0.95182 0.29127 0.16356 0.00000
C27 C 0.98688 0.43362 0.40710 0.00000
Cd28 Cd 0.86845 0.35429 0.22779 0.00000
O29 O 0.01286 0.36669 0.67806 0.00000
Cd30 Cd 0.00010 0.30777 0.48796 0.00000
Cd31 Cd 0.05676 0.26302 0.75781 0.00000
O32 O 0.10972 0.27369 0.51253 0.00000
O33 O 0.13478 0.21096 0.66325 0.00000
O34 O 0.11067 0.36904 0.79100 0.00000
C35 C 0.98481 0.24878 0.21888 0.00000
O36 O 0.05191 0.20108 0.91496 0.00000
O37 O 0.97036 0.27616 0.88234 0.00000
C38 C 0.06388 0.39858 0.73117 0.00000
C39 C 0.14520 0.23171 0.56526 0.00000
C40 C 0.99491 0.23005 0.93730 0.00000
C41 C 0.91965 0.22701 0.60365 0.00000
O42 O 0.24278 0.05037 0.37873 0.00000
O43 O 0.31151 0.13205 0.33584 0.00000
O44 O 0.43395 0.09468 0.17758 0.00000
O45 O 0.43816 0.98303 0.17964 0.00000
O46 O 0.27003 0.04945 0.08954 0.00000
O47 O 0.32537 0.07203 0.93607 0.00000
C48 C 0.46625 0.03924 0.16959 0.00000
Cd49 Cd 0.39109 0.15599 0.02661 0.00000
O50 O 0.39813 0.01779 0.43280 0.00000
Cd51 Cd 0.33985 0.02786 0.24599 0.00000
Cd52 Cd 0.29291 0.97589 0.49874 0.00000
O53 O 0.30210 0.91908 0.23647 0.00000
O54 O 0.23836 0.89675 0.37952 0.00000
O55 O 0.39708 0.92141 0.51549 0.00000
C56 C 0.28172 0.04017 0.98110 0.00000
O57 O 0.23094 0.98362 0.65754 0.00000
O58 O 0.30878 0.06421 0.65049 0.00000
C59 C 0.42825 0.96716 0.47021 0.00000
C60 C 0.25887 0.88467 0.27813 0.00000
C61 C 0.26178 0.04082 0.69779 0.00000
C62 C 0.26166 0.11135 0.38691 0.00000
O63 O 0.97376 0.78137 0.97272 0.00000
O64 O 0.89209 0.71263 0.01561 0.00000
O65 O 0.92946 0.59017 0.17386 0.00000
O66 O 0.04110 0.58595 0.17179 0.00000
O67 O 0.97469 0.75411 0.26190 0.00000
O68 O 0.95211 0.69877 0.41537 0.00000
C69 C 0.98489 0.55786 0.18186 0.00000
Cd70 Cd 0.86817 0.63304 0.32484 0.00000
O71 O 0.00634 0.62600 0.91864 0.00000
Cd72 Cd 0.99627 0.68428 0.10545 0.00000
Cd73 Cd 0.04823 0.73124 0.85270 0.00000
O74 O 0.10503 0.72204 0.11497 0.00000
O75 O 0.12736 0.78579 0.97192 0.00000
O76 O 0.10270 0.62704 0.83595 0.00000
C77 C 0.98397 0.74243 0.37034 0.00000
O78 O 0.04050 0.79321 0.69390 0.00000
O79 O 0.95992 0.71536 0.70095 0.00000
C80 C 0.05696 0.59587 0.88123 0.00000
C81 C 0.13944 0.76527 0.07331 0.00000
C82 C 0.98330 0.76236 0.65365 0.00000
C83 C 0.91279 0.76249 0.96454 0.00000
H84 H 0.86062 0.88729 0.88299 0.00000
H85 H 0.80402 0.84877 0.93749 0.00000
H86 H 0.84131 0.74477 0.84626 0.00000
N87 N 0.91847 0.78369 0.77226 0.00000
C88 C 0.83003 0.84795 0.87032 0.00000
C89 C 0.87252 0.78409 0.86540 0.00000
H90 H 0.94099 0.82337 0.77891 0.00000
H91 H 0.94812 0.74994 0.77893 0.00000
H92 H 0.89408 0.77738 0.70248 0.00000
H93 H 0.17801 0.22605 0.41646 0.00000
H94 H 0.23877 0.23687 0.51533 0.00000
H95 H 0.23167 0.12011 0.54313 0.00000
N96 N 0.15556 0.09483 0.41691 0.00000
C97 C 0.19725 0.21058 0.48990 0.00000
C98 C 0.21574 0.13627 0.46750 0.00000
H99 H 0.13477 0.11410 0.35655 0.00000
H100 H 0.16864 0.05303 0.39243 0.00000
H101 H 0.12686 0.09217 0.47127 0.00000
H102 H 0.86660 0.09543 0.64511 0.00000
H103 H 0.80681 0.13938 0.59435 0.00000
H104 H 0.85244 0.23500 0.71806 0.00000
N105 N 0.93419 0.18876 0.79078 0.00000
C106 C 0.83748 0.13376 0.66396 0.00000
C107 C 0.88175 0.19730 0.69301 0.00000
H108 H 0.95561 0.14953 0.77652 0.00000
H109 H 0.96420 0.22321 0.79817 0.00000
H110 H 0.91449 0.18850 0.85696 0.00000
H111 H 0.27050 0.83089 0.13780 0.00000
H112 H 0.25707 0.78881 0.24143 0.00000
H113 H 0.13981 0.81305 0.20953 0.00000
N114 N 0.14551 0.86652 0.07186 0.00000
C115 C 0.24159 0.82737 0.20026 0.00000
C116 C 0.16921 0.81283 0.14580 0.00000
H117 H 0.17648 0.87358 0.02312 0.00000
H118 H 0.10612 0.85350 0.03060 0.00000
H119 H 0.13946 0.90498 0.11717 0.00000
H120 H 0.77991 0.09234 0.31008 0.00000
H121 H 0.85434 0.06445 0.31745 0.00000
H122 H 0.81175 0.95904 0.22155 0.00000
N123 N 0.71351 0.98549 0.19904 0.00000
C124 C 0.80678 0.05151 0.31724 0.00000
C125 C 0.78711 0.00145 0.21057 0.00000
H126 H 0.69016 0.02409 0.20474 0.00000
H127 H 0.70152 0.96219 0.12961 0.00000
H128 H 0.70431 0.96038 0.25572 0.00000
H129 H 0.93573 0.25332 0.04172 0.00000
H130 H 0.95189 0.17539 0.03577 0.00000
H131 H 0.06218 0.20275 0.12925 0.00000
N132 N 0.05104 0.30422 0.14977 0.00000
C133 C 0.97191 0.22033 0.03461 0.00000
C134 C 0.02408 0.23385 0.14028 0.00000
H135 H 0.01654 0.33316 0.14405 0.00000
H136 H 0.07572 0.31365 0.21871 0.00000
H137 H 0.07733 0.30841 0.09236 0.00000
H138 H 0.29899 0.08870 0.82839 0.00000
H139 H 0.21951 0.09008 0.82693 0.00000
H140 H 0.22015 0.97348 0.85793 0.00000
N141 N 0.32147 0.96149 0.86735 0.00000
C142 C 0.25762 0.06142 0.80805 0.00000
C143 C 0.26031 0.00278 0.88345 0.00000
H144 H 0.35813 0.98873 0.87478 0.00000
H145 H 0.32624 0.93208 0.92128 0.00000
H146 H 0.31698 0.93855 0.79623 0.00000
H147 H 0.03590 0.74013 0.59259 0.00000
H148 H 0.96585 0.70797 0.53700 0.00000
H149 H 0.94938 0.80133 0.42458 0.00000
N150 N 0.03811 0.84958 0.48124 0.00000
C151 C 0.99019 0.75083 0.56056 0.00000
C152 C 0.99542 0.78747 0.45263 0.00000
H153 H 0.07719 0.83950 0.52127 0.00000
H154 H 0.04681 0.86628 0.41528 0.00000
H155 H 0.01608 0.88065 0.52436 0.00000
H156 H 0.56866 0.02030 0.15386 0.00000
H157 H 0.50426 0.98361 0.08399 0.00000
H158 H 0.49052 0.07630 0.96948 0.00000
N159 N 0.57264 0.13037 0.04447 0.00000
C160 C 0.52450 0.02794 0.11215 0.00000
C161 C 0.53547 0.06555 0.00739 0.00000
H162 H 0.60953 0.12282 0.09252 0.00000
H163 H 0.58521 0.14806 0.98174 0.00000
H164 H 0.54561 0.15953 0.08144 0.00000
H165 H 0.92792 0.47246 0.20236 0.00000
H166 H 0.00576 0.45655 0.20415 0.00000
H167 H 0.02564 0.52486 0.38505 0.00000
N168 N 0.92823 0.54929 0.40200 0.00000
C169 C 0.97333 0.49085 0.22794 0.00000
C170 C 0.98107 0.50287 0.36037 0.00000
H171 H 0.88744 0.53493 0.36779 0.00000
H172 H 0.92877 0.54984 0.47943 0.00000
H173 H 0.93657 0.59126 0.38416 0.00000
H174 H 0.58366 0.00563 0.52695 0.00000
H175 H 0.57825 0.92605 0.50367 0.00000
H176 H 0.46979 0.93022 0.57400 0.00000
N177 N 0.46534 0.03196 0.60581 0.00000
C178 C 0.56503 0.96516 0.55415 0.00000
C179 C 0.48803 0.96940 0.54049 0.00000
H180 H 0.48840 0.06776 0.58800 0.00000
H181 H 0.42092 0.03744 0.58657 0.00000
H182 H 0.47286 0.02847 0.68249 0.00000
H183 H 0.05037 0.48962 0.92464 0.00000
H184 H 0.99535 0.51625 0.83301 0.00000
H185 H 0.07511 0.50637 0.69290 0.00000
N186 N 0.15164 0.46903 0.79484 0.00000
C187 C 0.04395 0.51539 0.85707 0.00000
C188 C 0.07867 0.47815 0.75853 0.00000
H189 H 0.15639 0.45160 0.86345 0.00000
H190 H 0.16949 0.44075 0.74112 0.00000
H191 H 0.17323 0.50926 0.80170 0.00000
loop_
_geom_bond_atom_site_label_1
_geom_bond_atom_site_label_2
_geom_bond_distance
_geom_bond_site_symmetry_2
_ccdc_geom_bond_type
O0 Cd9 2.581 . S
O0 Cd10 2.278 1_545 S
O0 C20 1.248 . S
O1 Cd9 2.300 . S
O1 C20 1.282 . D
O2 C6 1.266 . S
O2 Cd7 2.310 1_556 S
O2 Cd9 2.508 . S
O3 C6 1.258 1_565 D
O3 Cd9 2.301 1_565 S
O4 Cd9 2.232 1_554 S
O4 C14 1.289 . A
O5 Cd7 2.205 . S
O5 C14 1.248 . A
O8 Cd9 2.362 . S
O8 Cd10 2.449 1_545 S
O8 C17 1.254 1_545 S
Cd9 O11 2.255 1_545 S
Cd10 O12 2.174 . S
Cd10 O13 2.319 . S
Cd10 O15 2.295 . S
Cd10 O16 2.335 1_565 S
O11 C18 1.250 . A
O12 C18 1.275 . A
O13 C17 1.273 . D
O15 C19 1.299 1_565 A
O16 C19 1.232 . A
O21 Cd30 2.579 1_655 S
O21 Cd31 2.278 1_655 S
O21 C41 1.248 . S
O22 Cd30 2.293 1_655 S
O22 C41 1.282 . D
O23 C27 1.266 . S
O23 Cd28 2.310 . S
O23 Cd30 2.503 1_655 S
O24 C27 1.258 1_455 D
O24 Cd30 2.304 . S
O25 Cd30 2.231 1_655 S
O25 C35 1.289 . A
O26 Cd28 2.205 . S
O26 C35 1.248 . A
O29 Cd30 2.363 . S
O29 Cd31 2.449 . S
O29 C38 1.254 . S
Cd30 O32 2.263 . S
Cd31 O33 2.174 . S
Cd31 O34 2.319 . S
Cd31 O36 2.295 . S
Cd31 O37 2.335 1_455 S
O32 C39 1.250 . A
O33 C39 1.275 . A
O34 C38 1.273 . D
O36 C40 1.299 1_455 A
O37 C40 1.232 . A
O42 Cd51 2.581 . S
O42 Cd52 2.278 1_545 S
O42 C62 1.248 . S
O43 Cd51 2.300 . S
O43 C62 1.282 . D
O44 C48 1.266 . S
O44 Cd49 2.310 . S
O44 Cd51 2.508 . S
O45 C48 1.258 1_565 D
O45 Cd51 2.301 1_565 S
O46 Cd51 2.232 . S
O46 C56 1.289 1_554 A
O47 Cd49 2.205 1_556 S
O47 C56 1.248 . A
O50 Cd51 2.362 . S
O50 Cd52 2.449 1_545 S
O50 C59 1.254 1_545 S
Cd51 O53 2.255 1_545 S
Cd52 O54 2.174 . S
Cd52 O55 2.319 . S
Cd52 O57 2.295 . S
Cd52 O58 2.335 1_565 S
O53 C60 1.250 . A
O54 C60 1.275 . A
O55 C59 1.273 . D
O57 C61 1.299 1_565 A
O58 C61 1.232 . A
O63 Cd72 2.581 1_556 S
O63 Cd73 2.278 1_655 S
O63 C83 1.248 . S
O64 Cd72 2.300 . S
O64 C83 1.282 1_554 D
O65 C69 1.266 . S
O65 Cd70 2.310 . S
O65 Cd72 2.508 . S
O66 C69 1.258 1_455 D
O66 Cd72 2.301 1_455 S
O67 Cd72 2.232 . S
O67 C77 1.289 . A
O68 Cd70 2.205 . S
O68 C77 1.248 . A
O71 Cd72 2.362 1_456 S
O71 Cd73 2.449 . S
O71 C80 1.254 . S
Cd72 O74 2.255 1_655 S
Cd73 O75 2.174 . S
Cd73 O76 2.319 . S
Cd73 O78 2.295 . S
Cd73 O79 2.335 1_455 S
O74 C81 1.250 . A
O75 C81 1.275 1_556 A
O76 C80 1.273 . D
O78 C82 1.299 1_455 A
O79 C82 1.232 . A
H84 C88 0.970 . S
H85 C88 0.970 . S
H86 C89 0.981 . S
N87 C89 1.473 . S
N87 H90 0.890 . S
N87 H91 0.891 . S
N87 H92 0.891 . S
C88 C89 1.513 . S
H93 C97 0.970 . S
H94 C97 0.970 . S
H95 C98 0.981 . S
N96 C98 1.473 . S
N96 H99 0.890 . S
N96 H100 0.891 . S
N96 H101 0.891 . S
C97 C98 1.513 . S
H102 C106 0.970 . S
H103 C106 0.970 . S
H104 C107 0.981 . S
N105 C107 1.473 . S
N105 H108 0.890 . S
N105 H109 0.891 . S
N105 H110 0.891 . S
C106 C107 1.513 . S
H111 C115 0.970 . S
H112 C115 0.970 . S
H113 C116 0.981 . S
N114 C116 1.473 . S
N114 H117 0.890 . S
N114 H118 0.891 . S
N114 H119 0.891 . S
C115 C116 1.513 . S
H120 C124 0.970 . S
H121 C124 0.970 . S
H122 C125 0.981 1_565 S
N123 C125 1.473 1_565 S
N123 H126 0.890 1_565 S
N123 H127 0.891 . S
N123 H128 0.891 . S
C124 C125 1.513 . S
H129 C133 0.970 . S
H130 C133 0.970 . S
H131 C134 0.981 . S
N132 C134 1.473 . S
N132 H135 0.890 . S
N132 H136 0.891 . S
N132 H137 0.891 . S
C133 C134 1.513 1_655 S
H138 C142 0.970 . S
H139 C142 0.970 . S
H140 C143 0.981 1_565 S
N141 C143 1.473 1_565 S
N141 H144 0.890 . S
N141 H145 0.891 . S
N141 H146 0.891 . S
C142 C143 1.513 . S
H147 C151 0.970 1_455 S
H148 C151 0.970 . S
H149 C152 0.981 . S
N150 C152 1.473 1_455 S
N150 H153 0.890 . S
N150 H154 0.891 . S
N150 H155 0.891 . S
C151 C152 1.513 . S
H156 C160 0.970 . S
H157 C160 0.970 1_565 S
H158 C161 0.981 1_556 S
N159 C161 1.473 . S
N159 H162 0.890 . S
N159 H163 0.891 1_554 S
N159 H164 0.891 . S
C160 C161 1.513 . S
H165 C169 0.970 . S
H166 C169 0.970 1_455 S
H167 C170 0.981 1_455 S
N168 C170 1.473 . S
N168 H171 0.890 . S
N168 H172 0.891 . S
N168 H173 0.891 . S
C169 C170 1.513 . S
H174 C178 0.970 1_545 S
H175 C178 0.970 . S
H176 C179 0.981 . S
N177 C179 1.473 1_545 S
N177 H180 0.890 . S
N177 H181 0.891 . S
N177 H182 0.891 . S
C178 C179 1.513 . S
H183 C187 0.970 . S
H184 C187 0.970 1_655 S
H185 C188 0.981 . S
N186 C188 1.473 . S
N186 H189 0.890 . S
N186 H190 0.891 . S
N186 H191 0.891 . S
C187 C188 1.513 . S
C88 C18 1.357 . S
C89 C83 1.426 . S
C97 C39 1.446 . S
C98 C62 1.416 . S
C106 C20 1.473 . S
C107 C41 1.496 . S
C115 C60 1.388 . S
C116 C81 1.288 . S
C124 C19 1.289 . S
C125 C14 1.231 . S
C133 C40 1.283 1_554 S
C134 C35 1.264 1_455 S
C142 C61 1.305 . S
C143 C56 1.312 . S
C151 C82 1.096 . S
C152 C77 1.234 . S
C160 C48 1.390 . S
C161 C6 1.448 1_554 S
C169 C69 1.498 . S
C170 C27 1.518 . S
C178 C17 1.357 . S
C179 C59 1.358 . S
C187 C80 1.597 . S
C188 C38 1.587 . S
