# Generated by pormake.
# Topology ofo, (3)-cn, num edge types: 1
# Building blocks:
#     Node 0, Type 0, BuildingBlock: N245, # of connection points: 3
#     Node 1, Type 0, BuildingBlock: N245, # of connection points: 3
#     Node 2, Type 0, BuildingBlock: N245, # of connection points: 3
#     Node 3, Type 0, BuildingBlock: N245, # of connection points: 3
#     Node 4, Type 0, BuildingBlock: N245, # of connection points: 3
#     Node 5, Type 0, BuildingBlock: N245, # of connection points: 3
#     Node 6, Type 0, BuildingBlock: N245, # of connection points: 3
#     Node 7, Type 0, BuildingBlock: N245, # of connection points: 3
#     Node 8, Type 0, BuildingBlock: N245, # of connection points: 3
#     Node 9, Type 0, BuildingBlock: N245, # of connection points: 3
#     Node 10, Type 0, BuildingBlock: N245, # of connection points: 3
#     Node 11, Type 0, BuildingBlock: N245, # of connection points: 3
#     Edge 12, Type (0, 0), BuildingBlock: E120, # of connection points: 2
#     Edge 13, Type (0, 0), BuildingBlock: E120, # of connection points: 2
#     Edge 14, Type (0, 0), BuildingBlock: E120, # of connection points: 2
#     Edge 15, Type (0, 0), BuildingBlock: E120, # of connection points: 2
#     Edge 16, Type (0, 0), BuildingBlock: E120, # of connection points: 2
#     Edge 17, Type (0, 0), BuildingBlock: E120, # of connection points: 2
#     Edge 18, Type (0, 0), BuildingBlock: E120, # of connection points: 2
#     Edge 19, Type (0, 0), BuildingBlock: E120, # of connection points: 2
#     Edge 20, Type (0, 0), BuildingBlock: E120, # of connection points: 2
#     Edge 21, Type (0, 0), BuildingBlock: E120, # of connection points: 2
#     Edge 22, Type (0, 0), BuildingBlock: E120, # of connection points: 2
#     Edge 23, Type (0, 0), BuildingBlock: E120, # of connection points: 2
#     Edge 24, Type (0, 0), BuildingBlock: E120, # of connection points: 2
#     Edge 25, Type (0, 0), BuildingBlock: E120, # of connection points: 2
#     Edge 26, Type (0, 0), BuildingBlock: E120, # of connection points: 2
#     Edge 27, Type (0, 0), BuildingBlock: E120, # of connection points: 2
#     Edge 28, Type (0, 0), BuildingBlock: E120, # of connection points: 2
#     Edge 29, Type (0, 0), BuildingBlock: E120, # of connection points: 2
# Relax obj value: 0.064
# Max RMSD: 0.069
# Mean RMSD: 0.069
data_ofo+N245+E120
_symmetry_space_group_name_H-M    P1
_symmetry_Int_Tables_number       1
_symmetry_cell_setting            triclinic
loop_
_symmetry_equiv_pos_as_xyz
'x, y, z'
_cell_length_a     18.161
_cell_length_b     18.161
_cell_length_c     43.856
_cell_angle_alpha  90.000
_cell_angle_beta   90.000
_cell_angle_gamma  119.999
loop_
_atom_site_label
_atom_site_type_symbol
_atom_site_fract_x
_atom_site_fract_y
_atom_site_fract_z
_atom_type_partial_charge
O0 O 0.91125 0.39314 0.92887 0.00000
Sm1 Sm 0.83453 0.36238 0.97801 0.00000
O2 O 0.79897 0.40890 0.92762 0.00000
C3 C 0.69019 0.19579 0.97757 0.00000
O4 O 0.71654 0.23607 0.95323 0.00000
O5 O 0.71923 0.22562 0.00308 0.00000
C6 C 0.97090 0.33300 0.99158 0.00000
C7 C 0.85940 0.40718 0.91517 0.00000
O8 O 0.89658 0.27213 0.99082 0.00000
O9 O 0.99031 0.40856 0.98885 0.00000
O10 O 0.47101 0.79761 0.58672 0.00000
Sm11 Sm 0.62107 0.84952 0.60064 0.00000
O12 O 0.56129 0.91889 0.56511 0.00000
C13 C 0.67447 0.97582 0.64690 0.00000
O14 O 0.61793 0.96627 0.62856 0.00000
O15 O 0.71473 0.93737 0.64530 0.00000
C16 C 0.53261 0.69472 0.63389 0.00000
C17 C 0.48807 0.86110 0.57085 0.00000
O18 O 0.56768 0.76388 0.64775 0.00000
O19 O 0.53820 0.68736 0.60600 0.00000
O20 O 0.51811 0.60682 0.07111 0.00000
Sm21 Sm 0.47215 0.63758 0.02197 0.00000
O22 O 0.39008 0.59107 0.07237 0.00000
C23 C 0.49440 0.80417 0.02242 0.00000
O24 O 0.48047 0.76390 0.04676 0.00000
O25 O 0.49360 0.77434 0.99691 0.00000
C26 C 0.63790 0.66696 0.00840 0.00000
C27 C 0.45222 0.59278 0.08482 0.00000
O28 O 0.62445 0.72784 0.00917 0.00000
O29 O 0.58175 0.59141 0.01114 0.00000
O30 O 0.96627 0.61793 0.70477 0.00000
Sm31 Sm 0.84952 0.62107 0.73270 0.00000
O32 O 0.93737 0.71472 0.68804 0.00000
C33 C 0.69472 0.53261 0.69945 0.00000
O34 O 0.76389 0.56768 0.68558 0.00000
O35 O 0.68736 0.53820 0.72733 0.00000
C36 C 0.86110 0.48805 0.76248 0.00000
C37 C 0.97582 0.67446 0.68643 0.00000
O38 O 0.79761 0.47100 0.74661 0.00000
O39 O 0.91889 0.56128 0.76822 0.00000
O40 O 0.10340 0.37557 0.67582 0.00000
Sm41 Sm 0.16547 0.52788 0.68863 0.00000
O42 O 0.00968 0.41827 0.67779 0.00000
C43 C 0.14059 0.54782 0.75147 0.00000
O44 O 0.08874 0.48193 0.73777 0.00000
O45 O 0.20102 0.60996 0.73902 0.00000
C46 C 0.30979 0.50562 0.68907 0.00000
C47 C 0.02908 0.36213 0.67506 0.00000
O48 O 0.28344 0.51955 0.71341 0.00000
O49 O 0.28075 0.50641 0.66356 0.00000
O50 O 0.67343 0.20238 0.41330 0.00000
Sm51 Sm 0.77159 0.15048 0.39938 0.00000
O52 O 0.64244 0.08109 0.43491 0.00000
C53 C 0.69868 0.02418 0.35311 0.00000
O54 O 0.65170 0.03373 0.37146 0.00000
O55 O 0.77739 0.06263 0.35472 0.00000
C56 C 0.83792 0.30529 0.36614 0.00000
C57 C 0.62700 0.13888 0.42918 0.00000
O58 O 0.80383 0.23612 0.35228 0.00000
O59 O 0.85087 0.31263 0.39403 0.00000
O60 O 0.37551 0.27212 0.00917 0.00000
Sm61 Sm 0.52782 0.36237 0.02197 0.00000
O62 O 0.41821 0.40855 0.01114 0.00000
C63 C 0.54775 0.40719 0.08481 0.00000
O64 O 0.48186 0.39315 0.07111 0.00000
O65 O 0.60990 0.40890 0.07237 0.00000
C66 C 0.50556 0.19578 0.02242 0.00000
C67 C 0.36207 0.33300 0.00841 0.00000
O68 O 0.51949 0.23607 0.04676 0.00000
O69 O 0.50635 0.22561 0.99691 0.00000
O70 O 0.27216 0.89662 0.34252 0.00000
Sm71 Sm 0.36241 0.83456 0.35532 0.00000
O72 O 0.40859 0.99035 0.34449 0.00000
C73 C 0.40721 0.85944 0.41817 0.00000
O74 O 0.39317 0.91129 0.40446 0.00000
O75 O 0.40892 0.79900 0.40572 0.00000
C76 C 0.19582 0.69023 0.35577 0.00000
C77 C 0.33304 0.97094 0.34175 0.00000
O78 O 0.23609 0.71658 0.38010 0.00000
O79 O 0.22565 0.71927 0.33026 0.00000
O80 O 0.72789 0.62451 0.32416 0.00000
Sm81 Sm 0.63764 0.47220 0.31135 0.00000
O82 O 0.59146 0.58181 0.32219 0.00000
C83 C 0.59283 0.45227 0.24851 0.00000
O84 O 0.60687 0.51816 0.26221 0.00000
O85 O 0.59112 0.39012 0.26096 0.00000
C86 C 0.80424 0.49446 0.31090 0.00000
C87 C 0.66701 0.63795 0.32492 0.00000
O88 O 0.76395 0.48053 0.28657 0.00000
O89 O 0.77441 0.49367 0.33642 0.00000
O90 O 0.10338 0.72783 0.99082 0.00000
Sm91 Sm 0.16544 0.63758 0.97802 0.00000
O92 O 0.00966 0.59140 0.98885 0.00000
C93 C 0.14056 0.59278 0.91517 0.00000
O94 O 0.08871 0.60682 0.92888 0.00000
O95 O 0.20099 0.59106 0.92762 0.00000
C96 C 0.30977 0.80417 0.97757 0.00000
C97 C 0.02906 0.66695 0.99159 0.00000
O98 O 0.28342 0.76389 0.95323 0.00000
O99 O 0.28073 0.77434 0.00308 0.00000
O100 O 0.37558 0.10340 0.65751 0.00000
Sm101 Sm 0.52789 0.16547 0.64471 0.00000
O102 O 0.41828 0.00968 0.65554 0.00000
C103 C 0.54783 0.14060 0.58187 0.00000
O104 O 0.48194 0.08875 0.59557 0.00000
O105 O 0.60997 0.20103 0.59432 0.00000
C106 C 0.50563 0.30980 0.64426 0.00000
C107 C 0.36214 0.02908 0.65827 0.00000
O108 O 0.51956 0.28345 0.61993 0.00000
O109 O 0.50642 0.28075 0.66978 0.00000
O110 O 0.34834 0.38203 0.29522 0.00000
Sm111 Sm 0.22845 0.37890 0.26729 0.00000
O112 O 0.22265 0.28525 0.31196 0.00000
C113 C 0.16211 0.46737 0.30054 0.00000
O114 O 0.19621 0.43230 0.31440 0.00000
O115 O 0.14917 0.46177 0.27265 0.00000
C116 C 0.37304 0.51189 0.23750 0.00000
C117 C 0.30135 0.32551 0.31356 0.00000
O118 O 0.32661 0.52895 0.25338 0.00000
O119 O 0.35760 0.43866 0.23177 0.00000
C120 C 0.85569 0.43634 0.79046 0.00000
C121 C 0.85909 0.37565 0.80720 0.00000
C122 C 0.86144 0.37908 0.83872 0.00000
C123 C 0.85742 0.44079 0.85417 0.00000
C124 C 0.85304 0.50344 0.83860 0.00000
C125 C 0.85211 0.50056 0.80648 0.00000
C126 C 0.85859 0.44660 0.88888 0.00000
O127 O 0.85945 0.50470 0.90288 0.00000
H128 H 0.85989 0.33078 0.79730 0.00000
H129 H 0.86586 0.33733 0.84951 0.00000
H130 H 0.85062 0.54692 0.84892 0.00000
H131 H 0.84914 0.54301 0.79560 0.00000
C132 C 0.44598 0.85703 0.54244 0.00000
C133 C 0.38330 0.79973 0.52433 0.00000
C134 C 0.38399 0.81221 0.49318 0.00000
C135 C 0.44808 0.87989 0.47936 0.00000
C136 C 0.51367 0.93958 0.49634 0.00000
C137 C 0.51205 0.92741 0.52812 0.00000
C138 C 0.45229 0.89578 0.44509 0.00000
O139 O 0.50786 0.95909 0.43272 0.00000
H140 H 0.33887 0.75102 0.53300 0.00000
H141 H 0.33875 0.77246 0.48149 0.00000
H142 H 0.55840 0.98707 0.48718 0.00000
H143 H 0.55650 0.96776 0.53996 0.00000
C144 C 0.42367 0.54886 0.20928 0.00000
C145 C 0.37897 0.49248 0.18706 0.00000
C146 C 0.39542 0.51411 0.15656 0.00000
C147 C 0.45818 0.59066 0.14759 0.00000
C148 C 0.50616 0.65008 0.16891 0.00000
C149 C 0.48831 0.62833 0.19995 0.00000
C150 C 0.47950 0.61702 0.11429 0.00000
O151 O 0.53324 0.68761 0.10610 0.00000
H152 H 0.33634 0.43813 0.19241 0.00000
H153 H 0.36202 0.47439 0.14187 0.00000
H154 H 0.54963 0.70356 0.16311 0.00000
H155 H 0.52064 0.66840 0.21472 0.00000
C156 C 0.13631 0.57164 0.87642 0.00000
C157 C 0.07802 0.50999 0.85824 0.00000
C158 C 0.08776 0.51354 0.82688 0.00000
C159 C 0.15663 0.57639 0.81315 0.00000
C160 C 0.21816 0.64007 0.83027 0.00000
C161 C 0.20735 0.63703 0.86216 0.00000
C162 C 0.17078 0.58241 0.77875 0.00000
O163 O 0.23077 0.64143 0.76613 0.00000
H164 H 0.03047 0.46436 0.86700 0.00000
H165 H 0.04536 0.47106 0.81500 0.00000
H166 H 0.26610 0.68433 0.82114 0.00000
H167 H 0.24896 0.68018 0.87409 0.00000
C168 C 0.57036 0.12714 0.45707 0.00000
C169 C 0.56583 0.07041 0.47799 0.00000
C170 C 0.55987 0.08281 0.50882 0.00000
C171 C 0.55525 0.14982 0.51932 0.00000
C172 C 0.55863 0.20891 0.49934 0.00000
C173 C 0.56615 0.19683 0.46800 0.00000
C174 C 0.54743 0.16559 0.55301 0.00000
O175 O 0.54772 0.22835 0.56272 0.00000
H176 H 0.56677 0.02214 0.47150 0.00000
H177 H 0.55895 0.04350 0.52264 0.00000
H178 H 0.55593 0.25594 0.50622 0.00000
H179 H 0.56853 0.23678 0.45413 0.00000
C180 C 0.56504 0.42762 0.12357 0.00000
C181 C 0.57580 0.49279 0.14148 0.00000
C182 C 0.58060 0.48890 0.17288 0.00000
C183 C 0.57790 0.42191 0.18693 0.00000
C184 C 0.56800 0.35447 0.17010 0.00000
C185 C 0.56167 0.35802 0.13816 0.00000
C186 C 0.58415 0.41522 0.22140 0.00000
O187 O 0.57727 0.35292 0.23429 0.00000
H188 H 0.58000 0.54113 0.13250 0.00000
H189 H 0.58595 0.53408 0.18457 0.00000
H190 H 0.56558 0.30736 0.17945 0.00000
H191 H 0.55488 0.31232 0.12643 0.00000
C192 C 0.39746 0.89469 0.97372 0.00000
C193 C 0.42979 0.95881 0.95322 0.00000
C194 C 0.50819 0.03088 0.95769 0.00000
C195 C 0.55703 0.03928 0.98190 0.00000
C196 C 0.52837 0.97639 0.00325 0.00000
C197 C 0.44788 0.90372 0.99890 0.00000
C198 C 0.64429 0.11686 0.98758 0.00000
O199 O 0.68667 0.12664 0.01023 0.00000
H200 H 0.39865 0.95433 0.93579 0.00000
H201 H 0.52758 0.07470 0.94347 0.00000
H202 H 0.56117 0.98131 0.02024 0.00000
H203 H 0.42763 0.86036 0.01333 0.00000
C204 C 0.49753 0.60265 0.64033 0.00000
C205 C 0.53156 0.57140 0.62032 0.00000
C206 C 0.52476 0.49277 0.62473 0.00000
C207 C 0.48168 0.44267 0.64836 0.00000
C208 C 0.44512 0.47022 0.66919 0.00000
C209 C 0.45340 0.55093 0.66491 0.00000
C210 C 0.47140 0.35513 0.65394 0.00000
O211 O 0.43632 0.31157 0.67613 0.00000
H212 H 0.56012 0.60344 0.60328 0.00000
H213 H 0.55074 0.47412 0.61089 0.00000
H214 H 0.41538 0.43654 0.68578 0.00000
H215 H 0.42871 0.57043 0.67899 0.00000
C216 C 0.50309 0.10544 0.02617 0.00000
C217 C 0.47395 0.04272 0.04719 0.00000
C218 C 0.47972 0.97035 0.04267 0.00000
C219 C 0.51704 0.96032 0.01783 0.00000
C220 C 0.54850 0.02175 0.99592 0.00000
C221 C 0.54123 0.09472 0.00010 0.00000
C222 C 0.52599 0.88235 0.01204 0.00000
O223 O 0.55568 0.87105 0.98889 0.00000
H224 H 0.44954 0.04837 0.06503 0.00000
H225 H 0.45713 0.92749 0.05728 0.00000
H226 H 0.57419 0.01569 0.97850 0.00000
H227 H 0.56247 0.13710 0.98554 0.00000
C228 C 0.39743 0.50265 0.69295 0.00000
C229 C 0.42932 0.46996 0.71326 0.00000
C230 C 0.50780 0.47647 0.70882 0.00000
C231 C 0.55715 0.51797 0.68483 0.00000
C232 C 0.52894 0.55312 0.66368 0.00000
C233 C 0.44836 0.54513 0.66801 0.00000
C234 C 0.64452 0.52787 0.67919 0.00000
O235 O 0.68737 0.56146 0.65672 0.00000
H236 H 0.39782 0.44255 0.73054 0.00000
H237 H 0.52690 0.45142 0.72289 0.00000
H238 H 0.56209 0.58174 0.64685 0.00000
H239 H 0.42841 0.56887 0.65371 0.00000
C240 C 0.09873 0.60847 0.35395 0.00000
C241 C 0.06980 0.54434 0.33349 0.00000
C242 C 0.99373 0.46957 0.33795 0.00000
C243 C 0.94375 0.45830 0.36211 0.00000
C244 C 0.96898 0.52099 0.38342 0.00000
C245 C 0.04718 0.59649 0.37907 0.00000
C246 C 0.85889 0.37761 0.36779 0.00000
O247 O 0.81569 0.36545 0.39039 0.00000
H248 H 0.10173 0.55067 0.31610 0.00000
H249 H 0.97674 0.42592 0.32377 0.00000
H250 H 0.93537 0.51413 0.40037 0.00000
H251 H 0.06508 0.63975 0.39348 0.00000
C252 C 0.09874 0.49028 0.31272 0.00000
C253 C 0.06972 0.52531 0.33321 0.00000
C254 C 0.99367 0.52405 0.32874 0.00000
C255 C 0.94380 0.48555 0.30454 0.00000
C256 C 0.96913 0.44826 0.28320 0.00000
C257 C 0.04730 0.45092 0.28756 0.00000
C258 C 0.85898 0.48144 0.29886 0.00000
O259 O 0.81588 0.45060 0.27621 0.00000
H260 H 0.10157 0.55076 0.35063 0.00000
H261 H 0.97662 0.55060 0.34295 0.00000
H262 H 0.93559 0.42166 0.26622 0.00000
H263 H 0.06527 0.42568 0.27313 0.00000
C264 C 0.26792 0.33047 0.00661 0.00000
C265 C 0.25244 0.38816 0.99304 0.00000
C266 C 0.17090 0.37565 0.99118 0.00000
C267 C 0.10400 0.30752 0.00363 0.00000
C268 C 0.11556 0.24740 0.01792 0.00000
C269 C 0.19847 0.25962 0.01932 0.00000
C270 C 0.01323 0.29156 0.00255 0.00000
O271 O 0.95196 0.22789 0.01238 0.00000
H272 H 0.29753 0.43717 0.98480 0.00000
H273 H 0.16227 0.41570 0.98102 0.00000
H274 H 0.06990 0.19960 0.02654 0.00000
H275 H 0.20715 0.21899 0.02902 0.00000
C276 C 0.73160 0.06048 0.66519 0.00000
C277 C 0.79091 0.08560 0.68739 0.00000
C278 C 0.86499 0.16364 0.68611 0.00000
C279 C 0.88010 0.21916 0.66345 0.00000
C280 C 0.82229 0.19793 0.64052 0.00000
C281 C 0.74759 0.11781 0.64162 0.00000
C282 C 0.96012 0.30630 0.66127 0.00000
O283 O 0.97604 0.35481 0.64002 0.00000
H284 H 0.78170 0.04966 0.70383 0.00000
H285 H 0.90540 0.17803 0.70141 0.00000
H286 H 0.83189 0.23542 0.62457 0.00000
H287 H 0.70765 0.10261 0.62608 0.00000
C288 C 0.94644 0.68531 0.99782 0.00000
C289 C 0.92438 0.74158 0.98735 0.00000
C290 C 0.84359 0.72923 0.99197 0.00000
C291 C 0.78448 0.66279 0.00792 0.00000
C292 C 0.80310 0.60420 0.01935 0.00000
C293 C 0.88497 0.61619 0.01416 0.00000
C294 C 0.69507 0.64712 0.01397 0.00000
O295 O 0.64008 0.58481 0.02700 0.00000
H296 H 0.96432 0.78948 0.97684 0.00000
H297 H 0.82993 0.76819 0.98380 0.00000
H298 H 0.76282 0.55756 0.03032 0.00000
H299 H 0.89842 0.57659 0.02185 0.00000
C300 C 0.26828 0.93965 0.66526 0.00000
C301 C 0.20795 0.91535 0.68705 0.00000
C302 C 0.13409 0.83712 0.68581 0.00000
C303 C 0.12018 0.78064 0.66364 0.00000
C304 C 0.17904 0.80102 0.64115 0.00000
C305 C 0.25354 0.88131 0.64219 0.00000
C306 C 0.04043 0.69326 0.66155 0.00000
O307 O 0.02562 0.64383 0.64069 0.00000
H308 H 0.21631 0.95199 0.70317 0.00000
H309 H 0.09296 0.82329 0.70081 0.00000
H310 H 0.17029 0.76285 0.62553 0.00000
H311 H 0.29419 0.89595 0.62694 0.00000
C312 C 0.68342 0.94430 0.34052 0.00000
C313 C 0.64894 0.87496 0.35871 0.00000
C314 C 0.65298 0.80309 0.35114 0.00000
C315 C 0.69372 0.79981 0.32609 0.00000
C316 C 0.73059 0.86805 0.30697 0.00000
C317 C 0.72511 0.94062 0.31447 0.00000
C318 C 0.70092 0.72258 0.31703 0.00000
O319 O 0.73384 0.71775 0.29359 0.00000
H320 H 0.62197 0.87565 0.37664 0.00000
H321 H 0.62675 0.75573 0.36382 0.00000
H322 H 0.75873 0.86676 0.28944 0.00000
H323 H 0.75004 0.98761 0.30158 0.00000
C324 C 0.31647 0.26081 0.32620 0.00000
C325 C 0.34982 0.22534 0.30777 0.00000
C326 C 0.34603 0.14955 0.31536 0.00000
C327 C 0.30662 0.10626 0.34070 0.00000
C328 C 0.27092 0.13828 0.36008 0.00000
C329 C 0.27615 0.21619 0.35254 0.00000
C330 C 0.29973 0.02200 0.34981 0.00000
O331 O 0.26806 0.98493 0.37348 0.00000
H332 H 0.37584 0.25247 0.28966 0.00000
H333 H 0.37148 0.12799 0.30251 0.00000
H334 H 0.24371 0.10937 0.37780 0.00000
H335 H 0.25201 0.23869 0.36561 0.00000
loop_
_geom_bond_atom_site_label_1
_geom_bond_atom_site_label_2
_geom_bond_distance
_geom_bond_site_symmetry_2
_ccdc_geom_bond_type
O0 C7 1.246 . A
O0 Sm1 2.474 . S
Sm1 O2 2.561 . S
Sm1 O4 2.474 . S
Sm1 O5 2.561 1_556 S
Sm1 O8 2.474 . S
Sm1 O9 2.561 . S
O2 C7 1.240 . A
C3 O4 1.246 . A
C3 O5 1.240 1_556 A
C6 O8 1.246 . A
C6 O9 1.240 . A
O10 C17 1.246 . A
O10 Sm11 2.474 . S
Sm11 O12 2.561 . S
Sm11 O14 2.474 . S
Sm11 O15 2.561 . S
Sm11 O18 2.474 . S
Sm11 O19 2.561 . S
O12 C17 1.240 . A
C13 O14 1.246 . A
C13 O15 1.240 . A
C16 O18 1.246 . A
C16 O19 1.240 . A
O20 C27 1.246 . A
O20 Sm21 2.474 . S
Sm21 O22 2.561 . S
Sm21 O24 2.474 . S
Sm21 O25 2.561 1_554 S
Sm21 O28 2.474 . S
Sm21 O29 2.561 . S
O22 C27 1.240 . A
C23 O24 1.246 . A
C23 O25 1.240 1_554 A
C26 O28 1.246 . A
C26 O29 1.240 . A
O30 C37 1.246 . A
O30 Sm31 2.474 . S
Sm31 O32 2.561 . S
Sm31 O34 2.474 . S
Sm31 O35 2.561 . S
Sm31 O38 2.474 . S
Sm31 O39 2.561 . S
O32 C37 1.240 . A
C33 O34 1.246 . A
C33 O35 1.240 . A
C36 O38 1.246 . A
C36 O39 1.240 . A
O40 C47 1.246 . A
O40 Sm41 2.474 . S
Sm41 O42 2.561 . S
Sm41 O44 2.474 . S
Sm41 O45 2.561 . S
Sm41 O48 2.474 . S
Sm41 O49 2.561 . S
O42 C47 1.240 . A
C43 O44 1.246 . A
C43 O45 1.240 . A
C46 O48 1.246 . A
C46 O49 1.240 . A
O50 C57 1.246 . A
O50 Sm51 2.474 . S
Sm51 O52 2.561 . S
Sm51 O54 2.474 . S
Sm51 O55 2.561 . S
Sm51 O58 2.474 . S
Sm51 O59 2.561 . S
O52 C57 1.240 . A
C53 O54 1.246 . A
C53 O55 1.240 . A
C56 O58 1.246 . A
C56 O59 1.240 . A
O60 C67 1.246 . A
O60 Sm61 2.474 . S
Sm61 O62 2.561 . S
Sm61 O64 2.474 . S
Sm61 O65 2.561 . S
Sm61 O68 2.474 . S
Sm61 O69 2.561 1_554 S
O62 C67 1.240 . A
C63 O64 1.246 . A
C63 O65 1.240 . A
C66 O68 1.246 . A
C66 O69 1.240 1_554 A
O70 C77 1.246 . A
O70 Sm71 2.474 . S
Sm71 O72 2.561 . S
Sm71 O74 2.474 . S
Sm71 O75 2.561 . S
Sm71 O78 2.474 . S
Sm71 O79 2.561 . S
O72 C77 1.240 . A
C73 O74 1.246 . A
C73 O75 1.240 . A
C76 O78 1.246 . A
C76 O79 1.240 . A
O80 C87 1.246 . A
O80 Sm81 2.474 . S
Sm81 O82 2.561 . S
Sm81 O84 2.474 . S
Sm81 O85 2.561 . S
Sm81 O88 2.474 . S
Sm81 O89 2.561 . S
O82 C87 1.240 . A
C83 O84 1.246 . A
C83 O85 1.240 . A
C86 O88 1.246 . A
C86 O89 1.240 . A
O90 C97 1.246 . A
O90 Sm91 2.474 . S
Sm91 O92 2.561 . S
Sm91 O94 2.474 . S
Sm91 O95 2.561 . S
Sm91 O98 2.474 . S
Sm91 O99 2.561 1_556 S
O92 C97 1.240 . A
C93 O94 1.246 . A
C93 O95 1.240 . A
C96 O98 1.246 . A
C96 O99 1.240 1_556 A
O100 C107 1.246 . A
O100 Sm101 2.474 . S
Sm101 O102 2.561 . S
Sm101 O104 2.474 . S
Sm101 O105 2.561 . S
Sm101 O108 2.474 . S
Sm101 O109 2.561 . S
O102 C107 1.240 . A
C103 O104 1.246 . A
C103 O105 1.240 . A
C106 O108 1.246 . A
C106 O109 1.240 . A
O110 C117 1.246 . A
O110 Sm111 2.474 . S
Sm111 O112 2.561 . S
Sm111 O114 2.474 . S
Sm111 O115 2.561 . S
Sm111 O118 2.474 . S
Sm111 O119 2.561 . S
O112 C117 1.240 . A
C113 O114 1.246 . A
C113 O115 1.240 . A
C116 O118 1.246 . A
C116 O119 1.240 . A
C120 C121 1.351 . A
C120 C125 1.391 . A
C121 C122 1.384 . A
C121 H128 0.930 . S
C122 C123 1.342 . A
C122 H129 0.930 . S
C123 C124 1.363 . A
C123 C126 1.525 . S
C124 C125 1.409 . A
C124 H130 0.930 . S
C125 H131 0.931 . S
C126 O127 1.214 . D
C132 C133 1.351 . A
C132 C137 1.391 . A
C133 C134 1.384 . A
C133 H140 0.930 . S
C134 C135 1.342 . A
C134 H141 0.930 . S
C135 C136 1.363 . A
C135 C138 1.525 . S
C136 C137 1.409 . A
C136 H142 0.930 . S
C137 H143 0.931 . S
C138 O139 1.214 . D
C144 C145 1.351 . A
C144 C149 1.391 . A
C145 C146 1.384 . A
C145 H152 0.930 . S
C146 C147 1.342 . A
C146 H153 0.930 . S
C147 C148 1.363 . A
C147 C150 1.525 . S
C148 C149 1.409 . A
C148 H154 0.930 . S
C149 H155 0.931 . S
C150 O151 1.214 . D
C156 C157 1.351 . A
C156 C161 1.391 . A
C157 C158 1.384 . A
C157 H164 0.930 . S
C158 C159 1.342 . A
C158 H165 0.930 . S
C159 C160 1.363 . A
C159 C162 1.525 . S
C160 C161 1.409 . A
C160 H166 0.930 . S
C161 H167 0.931 . S
C162 O163 1.214 . D
C168 C169 1.351 . A
C168 C173 1.391 . A
C169 C170 1.384 . A
C169 H176 0.930 . S
C170 C171 1.342 . A
C170 H177 0.930 . S
C171 C172 1.363 . A
C171 C174 1.525 . S
C172 C173 1.409 . A
C172 H178 0.930 . S
C173 H179 0.931 . S
C174 O175 1.214 . D
C180 C181 1.351 . A
C180 C185 1.391 . A
C181 C182 1.384 . A
C181 H188 0.930 . S
C182 C183 1.342 . A
C182 H189 0.930 . S
C183 C184 1.363 . A
C183 C186 1.525 . S
C184 C185 1.409 . A
C184 H190 0.930 . S
C185 H191 0.931 . S
C186 O187 1.214 . D
C192 C193 1.351 . A
C192 C197 1.391 . A
C193 C194 1.384 1_565 A
C193 H200 0.930 . S
C194 C195 1.342 . A
C194 H201 0.930 . S
C195 C196 1.363 1_546 A
C195 C198 1.525 . S
C196 C197 1.409 1_554 A
C196 H202 0.930 . S
C197 H203 0.931 1_556 S
C198 O199 1.214 1_556 D
C204 C205 1.351 . A
C204 C209 1.391 . A
C205 C206 1.384 . A
C205 H212 0.930 . S
C206 C207 1.342 . A
C206 H213 0.930 . S
C207 C208 1.363 . A
C207 C210 1.525 . S
C208 C209 1.409 . A
C208 H214 0.930 . S
C209 H215 0.931 . S
C210 O211 1.214 . D
C216 C217 1.351 . A
C216 C221 1.400 . A
C217 C218 1.384 1_545 A
C217 H224 0.930 . S
C218 C219 1.342 . A
C218 H225 0.930 . S
C219 C220 1.363 1_564 A
C219 C222 1.525 . S
C220 C221 1.408 1_556 A
C220 H226 0.930 . S
C221 H227 0.923 1_554 S
C222 O223 1.214 1_554 D
C228 C229 1.351 . A
C228 C233 1.391 . A
C229 C230 1.384 . A
C229 H236 0.930 . S
C230 C231 1.342 . A
C230 H237 0.930 . S
C231 C232 1.363 . A
C231 C234 1.525 . S
C232 C233 1.409 . A
C232 H238 0.930 . S
C233 H239 0.931 . S
C234 O235 1.214 . D
C240 C241 1.351 . A
C240 C245 1.391 . A
C241 C242 1.384 1_455 A
C241 H248 0.930 . S
C242 C243 1.342 . A
C242 H249 0.930 . S
C243 C244 1.363 . A
C243 C246 1.525 . S
C244 C245 1.409 1_655 A
C244 H250 0.930 . S
C245 H251 0.931 . S
C246 O247 1.214 . D
C252 C253 1.351 . A
C252 C257 1.391 . A
C253 C254 1.384 1_455 A
C253 H260 0.930 . S
C254 C255 1.342 . A
C254 H261 0.930 . S
C255 C256 1.363 . A
C255 C258 1.525 . S
C256 C257 1.409 1_655 A
C256 H262 0.930 . S
C257 H263 0.931 . S
C258 O259 1.214 . D
C264 C265 1.351 1_554 A
C264 C269 1.391 . A
C265 C266 1.384 . A
C265 H272 0.930 . S
C266 C267 1.342 1_556 A
C266 H273 0.930 . S
C267 C268 1.363 . A
C267 C270 1.525 . S
C268 C269 1.409 . A
C268 H274 0.930 . S
C269 H275 0.931 . S
C270 O271 1.214 1_455 D
C276 C277 1.351 . A
C276 C281 1.391 . A
C277 C278 1.384 . A
C277 H284 0.930 . S
C278 C279 1.342 . A
C278 H285 0.930 . S
C279 C280 1.363 . A
C279 C282 1.525 . S
C280 C281 1.409 . A
C280 H286 0.930 . S
C281 H287 0.931 . S
C282 O283 1.214 . D
C288 C289 1.351 . A
C288 C293 1.391 1_556 A
C289 C290 1.384 . A
C289 H296 0.930 . S
C290 C291 1.342 1_556 A
C290 H297 0.930 . S
C291 C292 1.363 . A
C291 C294 1.525 . S
C292 C293 1.409 . A
C292 H298 0.930 . S
C293 H299 0.931 . S
C294 O295 1.214 . D
C300 C301 1.351 . A
C300 C305 1.391 . A
C301 C302 1.384 . A
C301 H308 0.930 . S
C302 C303 1.342 . A
C302 H309 0.930 . S
C303 C304 1.363 . A
C303 C306 1.525 . S
C304 C305 1.409 . A
C304 H310 0.930 . S
C305 H311 0.931 . S
C306 O307 1.214 . D
C312 C313 1.351 . A
C312 C317 1.391 . A
C313 C314 1.384 . A
C313 H320 0.930 . S
C314 C315 1.342 . A
C314 H321 0.930 . S
C315 C316 1.363 . A
C315 C318 1.525 . S
C316 C317 1.409 . A
C316 H322 0.930 . S
C317 H323 0.931 . S
C318 O319 1.214 . D
C324 C325 1.351 . A
C324 C329 1.391 . A
C325 C326 1.384 . A
C325 H332 0.930 . S
C326 C327 1.342 . A
C326 H333 0.930 . S
C327 C328 1.363 . A
C327 C330 1.525 . S
C328 C329 1.409 . A
C328 H334 0.930 . S
C329 H335 0.931 . S
C330 O331 1.214 1_545 D
C120 C36 1.518 . S
C126 C7 1.361 . S
C132 C17 1.444 . S
C138 C73 1.400 . S
C144 C116 1.487 . S
C150 C27 1.376 . S
C156 C93 1.735 . S
C162 C43 1.335 . S
C168 C57 1.543 . S
C174 C103 1.346 . S
C180 C63 1.734 . S
C186 C83 1.336 . S
C192 C96 1.628 . S
C198 C3 1.322 . S
C204 C16 1.489 . S
C210 C106 1.325 . S
C216 C66 1.627 . S
C222 C23 1.318 . S
C228 C46 1.628 . S
C234 C33 1.245 . S
C240 C76 1.644 . S
C246 C56 1.173 . S
C252 C113 1.504 . S
C258 C86 1.248 . S
C264 C67 1.689 . S
C270 C6 1.403 1_454 S
C276 C13 1.577 1_545 S
C282 C47 1.301 1_655 S
C288 C97 1.714 1_655 S
C294 C26 1.281 . S
C300 C107 1.694 1_565 S
C306 C37 1.511 1_455 S
C312 C53 1.444 1_565 S
C318 C87 1.384 . S
C324 C117 1.444 . S
C330 C77 1.383 1_545 S
