# Generated by pormake.
# Topology qtz-x, (6)-cn, num edge types: 1
# Building blocks:
#     Node 0, Type 0, BuildingBlock: N221, # of connection points: 6
#     Node 1, Type 0, BuildingBlock: N221, # of connection points: 6
#     Node 2, Type 0, BuildingBlock: N221, # of connection points: 6
#     Edge 3, Type (0, 0), BuildingBlock: E78, # of connection points: 2
#     Edge 4, Type (0, 0), BuildingBlock: E78, # of connection points: 2
#     Edge 5, Type (0, 0), BuildingBlock: E78, # of connection points: 2
#     Edge 6, Type (0, 0), BuildingBlock: E78, # of connection points: 2
#     Edge 7, Type (0, 0), BuildingBlock: E78, # of connection points: 2
#     Edge 8, Type (0, 0), BuildingBlock: E78, # of connection points: 2
#     Edge 9, Type (0, 0), BuildingBlock: E78, # of connection points: 2
#     Edge 10, Type (0, 0), BuildingBlock: E78, # of connection points: 2
#     Edge 11, Type (0, 0), BuildingBlock: E78, # of connection points: 2
# Relax obj value: 0.248
# Max RMSD: 0.198
# Mean RMSD: 0.198
data_qtz-x+N221+E78
_symmetry_space_group_name_H-M    P1
_symmetry_Int_Tables_number       1
_symmetry_cell_setting            triclinic
loop_
_symmetry_equiv_pos_as_xyz
'x, y, z'
_cell_length_a     19.174
_cell_length_b     19.174
_cell_length_c     39.544
_cell_angle_alpha  90.000
_cell_angle_beta   90.000
_cell_angle_gamma  120.000
loop_
_atom_site_label
_atom_site_type_symbol
_atom_site_fract_x
_atom_site_fract_y
_atom_site_fract_z
_atom_type_partial_charge
Ho0 Ho 0.51409 0.62561 0.84195 0.00000
Ho1 Ho 0.62561 0.51409 0.82471 0.00000
Ho2 Ho 0.44042 0.41989 0.88016 0.00000
Ho3 Ho 0.41989 0.44042 0.78650 0.00000
C4 C 0.71068 0.71068 0.83333 0.00000
C5 C 0.55148 0.38736 0.76069 0.00000
C6 C 0.28933 0.28933 0.83333 0.00000
O7 O 0.71170 0.64747 0.83797 0.00000
O8 O 0.64747 0.71170 0.82869 0.00000
O9 O 0.31490 0.32594 0.86030 0.00000
H10 H 0.58450 0.56812 0.88546 0.00000
O11 O 0.32594 0.31490 0.80636 0.00000
O12 O 0.55558 0.54586 0.86812 0.00000
O13 O 0.42273 0.54680 0.75633 0.00000
O14 O 0.45621 0.64259 0.79403 0.00000
H15 H 0.56812 0.58450 0.78120 0.00000
O16 O 0.54586 0.55558 0.79855 0.00000
O17 O 0.54680 0.42273 0.91033 0.00000
O18 O 0.64259 0.45621 0.87264 0.00000
O19 O 0.49071 0.40787 0.82925 0.00000
O20 O 0.42355 0.60692 0.88543 0.00000
O21 O 0.40380 0.49740 0.91160 0.00000
H22 H 0.48576 0.36161 0.82645 0.00000
O23 O 0.40787 0.49071 0.83741 0.00000
O24 O 0.60692 0.42355 0.78123 0.00000
O25 O 0.49740 0.40380 0.75507 0.00000
H26 H 0.36161 0.48576 0.84021 0.00000
C27 C 0.44409 0.61708 0.76441 0.00000
C28 C 0.61707 0.44409 0.90225 0.00000
C29 C 0.38736 0.55148 0.90597 0.00000
Ho30 Ho 0.88858 0.51409 0.17529 0.00000
Ho31 Ho 0.11162 0.62561 0.15804 0.00000
Ho32 Ho 0.02063 0.44042 0.21350 0.00000
Ho33 Ho 0.97957 0.41989 0.11984 0.00000
C34 C 0.00010 0.71068 0.16667 0.00000
C35 C 0.16422 0.55148 0.09403 0.00000
C36 C 0.00010 0.28933 0.16667 0.00000
O37 O 0.06433 0.71170 0.17130 0.00000
O38 O 0.93587 0.64747 0.16203 0.00000
O39 O 0.98906 0.31490 0.19363 0.00000
H40 H 0.01648 0.58451 0.21880 0.00000
O41 O 0.01114 0.32594 0.13970 0.00000
O42 O 0.00982 0.55558 0.20145 0.00000
O43 O 0.87603 0.42273 0.08967 0.00000
O44 O 0.81372 0.45621 0.12736 0.00000
H45 H 0.98372 0.56812 0.11453 0.00000
O46 O 0.99038 0.54586 0.13188 0.00000
O47 O 0.12417 0.54680 0.24367 0.00000
O48 O 0.18648 0.64259 0.20597 0.00000
O49 O 0.08294 0.49071 0.16258 0.00000
O50 O 0.81673 0.42355 0.21877 0.00000
O51 O 0.90650 0.40380 0.24493 0.00000
H52 H 0.12425 0.48576 0.15979 0.00000
O53 O 0.91726 0.40787 0.17075 0.00000
O54 O 0.18347 0.60692 0.11457 0.00000
O55 O 0.09370 0.49740 0.08840 0.00000
H56 H 0.87595 0.36161 0.17354 0.00000
C57 C 0.82711 0.44409 0.09775 0.00000
C58 C 0.17308 0.61707 0.23558 0.00000
C59 C 0.83598 0.38736 0.23930 0.00000
Ho60 Ho 0.37439 0.88858 0.50862 0.00000
Ho61 Ho 0.48591 0.11162 0.49138 0.00000
Ho62 Ho 0.58011 0.02063 0.54683 0.00000
Ho63 Ho 0.55958 0.97957 0.45317 0.00000
C64 C 0.28932 0.00010 0.50000 0.00000
C65 C 0.61264 0.16422 0.42736 0.00000
C66 C 0.71067 0.00010 0.50000 0.00000
O67 O 0.35253 0.06433 0.50464 0.00000
O68 O 0.28830 0.93587 0.49536 0.00000
O69 O 0.67406 0.98906 0.52697 0.00000
H70 H 0.43188 0.01648 0.55213 0.00000
O71 O 0.68510 0.01114 0.47303 0.00000
O72 O 0.45414 0.00982 0.53478 0.00000
O73 O 0.45320 0.87603 0.42300 0.00000
O74 O 0.35741 0.81372 0.46069 0.00000
H75 H 0.41550 0.98372 0.44787 0.00000
O76 O 0.44442 0.99038 0.46521 0.00000
O77 O 0.57727 0.12417 0.57700 0.00000
O78 O 0.54379 0.18648 0.53930 0.00000
O79 O 0.59213 0.08294 0.49592 0.00000
O80 O 0.39308 0.81673 0.55210 0.00000
O81 O 0.50260 0.90650 0.57826 0.00000
H82 H 0.63839 0.12425 0.49312 0.00000
O83 O 0.50929 0.91726 0.50408 0.00000
O84 O 0.57645 0.18347 0.44790 0.00000
O85 O 0.59620 0.09370 0.42173 0.00000
H86 H 0.51424 0.87595 0.50688 0.00000
C87 C 0.38293 0.82711 0.43108 0.00000
C88 C 0.55591 0.17308 0.56892 0.00000
C89 C 0.44852 0.83598 0.57264 0.00000
H90 H 0.22246 0.15917 0.81288 0.00000
H91 H 0.17375 0.20265 0.80503 0.00000
H92 H 0.17633 0.13469 0.86596 0.00000
H93 H 0.13298 0.18443 0.86058 0.00000
H94 H 0.11558 0.00010 0.84811 0.00000
H95 H 0.00010 0.11871 0.82798 0.00000
H96 H 0.77754 0.84083 0.85379 0.00000
H97 H 0.82625 0.79735 0.86163 0.00000
H98 H 0.82366 0.86531 0.80070 0.00000
H99 H 0.86701 0.81557 0.80608 0.00000
H100 H 0.88442 0.99990 0.81856 0.00000
H101 H 0.99990 0.88129 0.83868 0.00000
C102 C 0.20322 0.19290 0.82257 0.00000
C103 C 0.14787 0.14866 0.84947 0.00000
C104 C 0.07115 0.07236 0.83997 0.00000
C105 C 0.06899 0.00105 0.84230 0.00000
C106 C 0.00010 0.07048 0.83041 0.00000
C107 C 0.79678 0.80709 0.84409 0.00000
C108 C 0.85213 0.85134 0.81719 0.00000
C109 C 0.92885 0.92764 0.82670 0.00000
C110 C 0.93101 0.99895 0.82437 0.00000
C111 C 0.99990 0.92953 0.83626 0.00000
H112 H 0.05942 0.22047 0.18912 0.00000
H113 H 0.06119 0.21875 0.14963 0.00000
H114 H 0.93117 0.12104 0.18975 0.00000
H115 H 0.92700 0.12215 0.15033 0.00000
H116 H 0.98626 0.05101 0.21696 0.00000
H117 H 0.99139 0.05539 0.11700 0.00000
H118 H 0.94078 0.77953 0.14421 0.00000
H119 H 0.93901 0.78125 0.18370 0.00000
H120 H 0.06903 0.87895 0.14359 0.00000
H121 H 0.07319 0.87784 0.18301 0.00000
H122 H 0.01394 0.94899 0.11637 0.00000
H123 H 0.00881 0.94460 0.21633 0.00000
C124 C 0.02716 0.21159 0.16899 0.00000
C125 C 0.96215 0.12929 0.16925 0.00000
C126 C 0.98434 0.06387 0.16736 0.00000
C127 C 0.99134 0.03064 0.19634 0.00000
C128 C 0.99441 0.03282 0.13739 0.00000
C129 C 0.97303 0.78840 0.16434 0.00000
C130 C 0.03805 0.87071 0.16409 0.00000
C131 C 0.01586 0.93613 0.16597 0.00000
C132 C 0.00886 0.96936 0.13699 0.00000
C133 C 0.00579 0.96718 0.19595 0.00000
H134 H 0.84765 0.07702 0.50902 0.00000
H135 H 0.83012 0.03675 0.47333 0.00000
H136 H 0.82586 0.96283 0.53355 0.00000
H137 H 0.79991 0.91732 0.49903 0.00000
H138 H 0.96253 0.04102 0.54762 0.00000
H139 H 0.91003 0.93965 0.45715 0.00000
H140 H 0.15235 0.92318 0.49098 0.00000
H141 H 0.16988 0.96345 0.52667 0.00000
H142 H 0.17414 0.03736 0.46645 0.00000
H143 H 0.20009 0.08288 0.50097 0.00000
H144 H 0.03747 0.95918 0.45238 0.00000
H145 H 0.08998 0.06055 0.54285 0.00000
C146 C 0.81529 0.02680 0.49702 0.00000
C147 C 0.83611 0.96885 0.50940 0.00000
C148 C 0.92156 0.98673 0.50357 0.00000
C149 C 0.97678 0.02371 0.52821 0.00000
C150 C 0.94626 0.96397 0.47484 0.00000
C151 C 0.18472 0.97340 0.50298 0.00000
C152 C 0.16389 0.03135 0.49060 0.00000
C153 C 0.07844 0.01347 0.49643 0.00000
C154 C 0.02321 0.97649 0.47179 0.00000
C155 C 0.05373 0.03623 0.52516 0.00000
H156 H 0.24429 0.52770 0.09741 0.00000
H157 H 0.25957 0.61421 0.08980 0.00000
H158 H 0.14042 0.47378 0.06148 0.00000
H159 H 0.14778 0.55771 0.05550 0.00000
H160 H 0.22329 0.43725 0.03191 0.00000
H161 H 0.25903 0.65649 0.01646 0.00000
H162 H 0.30808 0.57664 0.90259 0.00000
H163 H 0.29280 0.49013 0.91020 0.00000
H164 H 0.41194 0.63055 0.93851 0.00000
H165 H 0.40459 0.54662 0.94450 0.00000
H166 H 0.32908 0.66709 0.96809 0.00000
H167 H 0.29333 0.44784 0.98353 0.00000
C168 C 0.21790 0.55821 0.09202 0.00000
C169 C 0.17856 0.53101 0.05974 0.00000
C170 C 0.23152 0.54420 0.02923 0.00000
C171 C 0.24407 0.48411 0.01910 0.00000
C172 C 0.26537 0.61344 0.00981 0.00000
C173 C 0.33447 0.54612 0.90798 0.00000
C174 C 0.37380 0.57332 0.94026 0.00000
C175 C 0.32085 0.56014 0.97077 0.00000
C176 C 0.30829 0.62022 0.98089 0.00000
C177 C 0.28699 0.49089 0.99018 0.00000
H178 H 0.87547 0.36875 0.25868 0.00000
H179 H 0.80171 0.29229 0.24338 0.00000
H180 H 0.79681 0.41835 0.27428 0.00000
H181 H 0.72259 0.34737 0.25644 0.00000
H182 H 0.83482 0.40190 0.32873 0.00000
H183 H 0.65195 0.21157 0.28629 0.00000
H184 H 0.57256 0.18342 0.40798 0.00000
H185 H 0.64632 0.25988 0.42328 0.00000
H186 H 0.65122 0.13382 0.39238 0.00000
H187 H 0.72544 0.20480 0.41022 0.00000
H188 H 0.61321 0.15026 0.33794 0.00000
H189 H 0.79608 0.34060 0.38038 0.00000
C190 C 0.82461 0.34967 0.24705 0.00000
C191 C 0.77133 0.36141 0.26899 0.00000
C192 C 0.74721 0.31505 0.30197 0.00000
C193 C 0.78945 0.35097 0.33024 0.00000
C194 C 0.68144 0.23851 0.30540 0.00000
C195 C 0.62342 0.20250 0.41962 0.00000
C196 C 0.67670 0.19076 0.39768 0.00000
C197 C 0.70082 0.23712 0.36470 0.00000
C198 C 0.65859 0.20120 0.33642 0.00000
C199 C 0.76659 0.31366 0.36126 0.00000
H200 H 0.73804 0.44231 0.09805 0.00000
H201 H 0.75594 0.37571 0.08527 0.00000
H202 H 0.83927 0.53560 0.06708 0.00000
H203 H 0.86494 0.47339 0.05617 0.00000
H204 H 0.73447 0.54098 0.03892 0.00000
H205 H 0.78272 0.37194 0.01039 0.00000
H206 H 0.71000 0.45336 0.90195 0.00000
H207 H 0.69210 0.51996 0.91472 0.00000
H208 H 0.60877 0.36007 0.93291 0.00000
H209 H 0.58310 0.42228 0.94382 0.00000
H210 H 0.71357 0.35469 0.96107 0.00000
H211 H 0.66532 0.52373 0.98961 0.00000
C212 C 0.78080 0.43221 0.09129 0.00000
C213 C 0.81885 0.47940 0.06151 0.00000
C214 C 0.76784 0.46032 0.02992 0.00000
C215 C 0.73107 0.50323 0.02327 0.00000
C216 C 0.75931 0.40349 0.00625 0.00000
C217 C 0.66724 0.46346 0.90871 0.00000
C218 C 0.62919 0.41627 0.93848 0.00000
C219 C 0.68020 0.43534 0.97008 0.00000
C220 C 0.71696 0.39245 0.97673 0.00000
C221 C 0.68873 0.49218 0.99374 0.00000
H222 H 0.29853 0.82259 0.42166 0.00000
H223 H 0.29891 0.74274 0.42910 0.00000
H224 H 0.40330 0.86379 0.38661 0.00000
H225 H 0.41164 0.78903 0.39570 0.00000
H226 H 0.30914 0.85340 0.34618 0.00000
H227 H 0.31303 0.65451 0.36882 0.00000
H228 H 0.25364 0.62544 0.24500 0.00000
H229 H 0.25326 0.70530 0.23757 0.00000
H230 H 0.14887 0.58425 0.28005 0.00000
H231 H 0.14054 0.65901 0.27097 0.00000
H232 H 0.24303 0.59464 0.32049 0.00000
H233 H 0.23914 0.79352 0.29784 0.00000
C234 C 0.33320 0.79959 0.42423 0.00000
C235 C 0.37303 0.80707 0.39241 0.00000
C236 C 0.32061 0.76201 0.36243 0.00000
C237 C 0.29650 0.80096 0.34119 0.00000
C238 C 0.29857 0.68347 0.35437 0.00000
C239 C 0.21897 0.64844 0.24243 0.00000
C240 C 0.17914 0.64097 0.27425 0.00000
C241 C 0.23155 0.68603 0.30423 0.00000
C242 C 0.25568 0.64707 0.32547 0.00000
C243 C 0.25361 0.76457 0.31230 0.00000
H244 H 0.48918 0.87799 0.59451 0.00000
H245 H 0.51804 0.82085 0.58000 0.00000
H246 H 0.36596 0.77363 0.60384 0.00000
H247 H 0.38909 0.71482 0.58650 0.00000
H248 H 0.39999 0.81135 0.66049 0.00000
H249 H 0.47366 0.67069 0.62008 0.00000
H250 H 0.40649 0.57005 0.73882 0.00000
H251 H 0.37763 0.62718 0.75333 0.00000
H252 H 0.52970 0.67440 0.72949 0.00000
H253 H 0.50657 0.73321 0.74683 0.00000
H254 H 0.49567 0.63668 0.67284 0.00000
H255 H 0.42201 0.77734 0.71326 0.00000
C256 C 0.47215 0.82902 0.58166 0.00000
C257 C 0.40973 0.76274 0.60042 0.00000
C258 C 0.43227 0.74380 0.63452 0.00000
C259 C 0.41903 0.77548 0.66262 0.00000
C260 C 0.46252 0.69237 0.63898 0.00000
C261 C 0.42352 0.61901 0.75167 0.00000
C262 C 0.48593 0.68529 0.73291 0.00000
C263 C 0.46340 0.70424 0.69881 0.00000
C264 C 0.47663 0.67255 0.67071 0.00000
C265 C 0.43314 0.75566 0.69435 0.00000
H266 H 0.52289 0.12354 0.59556 0.00000
H267 H 0.47940 0.16855 0.58212 0.00000
H268 H 0.63837 0.23993 0.60136 0.00000
H269 H 0.60028 0.28718 0.58492 0.00000
H270 H 0.61792 0.20536 0.65881 0.00000
H271 H 0.50727 0.31526 0.62112 0.00000
H272 H 0.58145 0.42882 0.73777 0.00000
H273 H 0.62493 0.38382 0.75121 0.00000
H274 H 0.46597 0.31244 0.73198 0.00000
H275 H 0.50406 0.26519 0.74841 0.00000
H276 H 0.48642 0.34700 0.67452 0.00000
H277 H 0.59707 0.23711 0.71221 0.00000
C278 C 0.53040 0.16939 0.58234 0.00000
C279 C 0.58888 0.24174 0.59932 0.00000
C280 C 0.56701 0.25807 0.63407 0.00000
C281 C 0.59150 0.23452 0.66162 0.00000
C282 C 0.52620 0.29948 0.63958 0.00000
C283 C 0.57393 0.38299 0.75099 0.00000
C284 C 0.51546 0.31063 0.73401 0.00000
C285 C 0.53732 0.29430 0.69926 0.00000
C286 C 0.51284 0.31785 0.67172 0.00000
C287 C 0.57814 0.25289 0.69375 0.00000
loop_
_geom_bond_atom_site_label_1
_geom_bond_atom_site_label_2
_geom_bond_distance
_geom_bond_site_symmetry_2
_ccdc_geom_bond_type
Ho0 O8 2.306 . S
Ho0 O12 2.293 . S
Ho0 O14 2.300 . S
Ho0 O16 2.437 . S
Ho0 O20 2.340 . S
Ho0 O23 2.367 . S
Ho1 O7 2.306 . S
Ho1 O12 2.437 . S
Ho1 O16 2.293 . S
Ho1 O18 2.300 . S
Ho1 O19 2.367 . S
Ho1 O24 2.340 . S
Ho2 O9 2.306 . S
Ho2 O12 2.367 . S
Ho2 O17 2.340 . S
Ho2 O19 2.293 . S
Ho2 O21 2.300 . S
Ho2 O23 2.437 . S
Ho3 O11 2.306 . S
Ho3 O13 2.340 . S
Ho3 O16 2.367 . S
Ho3 O19 2.437 . S
Ho3 O23 2.293 . S
Ho3 O25 2.300 . S
C4 O7 1.236 . A
C4 O8 1.236 . A
C5 O24 1.238 . A
C5 O25 1.245 . A
C6 O9 1.236 . A
C6 O11 1.236 . A
H10 O12 0.851 . S
O13 C27 1.238 . A
O14 C27 1.245 . A
H15 O16 0.851 . S
O17 C28 1.238 . A
O18 C28 1.245 . A
O19 H22 0.851 . S
O20 C29 1.238 . A
O21 C29 1.245 . A
O23 H26 0.851 . S
Ho30 O38 2.306 . S
Ho30 O42 2.293 1_655 S
Ho30 O44 2.300 . S
Ho30 O46 2.437 . S
Ho30 O50 2.340 . S
Ho30 O53 2.367 . S
Ho31 O37 2.306 . S
Ho31 O42 2.437 . S
Ho31 O46 2.293 1_455 S
Ho31 O48 2.300 . S
Ho31 O49 2.367 . S
Ho31 O54 2.340 . S
Ho32 O39 2.306 1_455 S
Ho32 O42 2.367 . S
Ho32 O47 2.340 . S
Ho32 O49 2.293 . S
Ho32 O51 2.300 1_455 S
Ho32 O53 2.437 1_455 S
Ho33 O41 2.306 1_655 S
Ho33 O43 2.340 . S
Ho33 O46 2.367 . S
Ho33 O49 2.437 1_655 S
Ho33 O53 2.293 . S
Ho33 O55 2.300 1_655 S
C34 O37 1.236 . A
C34 O38 1.235 1_455 A
C35 O54 1.238 . A
C35 O55 1.245 . A
C36 O39 1.236 1_455 A
C36 O41 1.236 . A
H40 O42 0.851 . S
O43 C57 1.238 . A
O44 C57 1.245 . A
H45 O46 0.851 . S
O47 C58 1.238 . A
O48 C58 1.245 . A
O49 H52 0.851 . S
O50 C59 1.238 . A
O51 C59 1.245 . A
O53 H56 0.851 . S
Ho60 O68 2.306 . S
Ho60 O72 2.293 1_565 S
Ho60 O74 2.300 . S
Ho60 O76 2.437 . S
Ho60 O80 2.340 . S
Ho60 O83 2.367 . S
Ho61 O67 2.306 . S
Ho61 O72 2.437 . S
Ho61 O76 2.293 1_545 S
Ho61 O78 2.300 . S
Ho61 O79 2.367 . S
Ho61 O84 2.340 . S
Ho62 O69 2.306 1_545 S
Ho62 O72 2.367 . S
Ho62 O77 2.340 . S
Ho62 O79 2.293 . S
Ho62 O81 2.300 1_545 S
Ho62 O83 2.437 1_545 S
Ho63 O71 2.306 1_565 S
Ho63 O73 2.340 . S
Ho63 O76 2.367 . S
Ho63 O79 2.437 1_565 S
Ho63 O83 2.293 . S
Ho63 O85 2.300 1_565 S
C64 O67 1.236 . A
C64 O68 1.236 1_545 A
C65 O84 1.238 . A
C65 O85 1.245 . A
C66 O69 1.236 1_545 A
C66 O71 1.236 . A
H70 O72 0.851 . S
O73 C87 1.238 . A
O74 C87 1.245 . A
H75 O76 0.851 . S
O77 C88 1.238 . A
O78 C88 1.245 . A
O79 H82 0.851 . S
O80 C89 1.238 . A
O81 C89 1.245 . A
O83 H86 0.851 . S
H90 C102 0.970 . S
H91 C102 0.970 . S
H92 C103 0.970 . S
H93 C103 0.970 . S
H94 C105 0.931 . S
H95 C106 0.930 . S
H96 C107 0.969 . S
H97 C107 0.970 . S
H98 C108 0.970 . S
H99 C108 0.970 . S
H100 C110 0.932 . S
H101 C111 0.930 . S
C102 C103 1.441 . S
C103 C104 1.515 . S
C104 C105 1.350 . A
C104 C106 1.397 . A
C105 C111 1.370 1_445 A
C106 C110 1.370 1_445 A
C107 C108 1.441 . S
C108 C109 1.514 . S
C109 C110 1.350 . A
C109 C111 1.397 . A
H112 C124 0.970 . S
H113 C124 0.970 . S
H114 C125 0.970 . S
H115 C125 0.970 . S
H116 C127 0.930 . S
H117 C128 0.930 . S
H118 C129 0.969 . S
H119 C129 0.970 . S
H120 C130 0.970 . S
H121 C130 0.970 . S
H122 C132 0.930 . S
H123 C133 0.930 . S
C124 C125 1.441 1_455 S
C125 C126 1.515 . S
C126 C127 1.350 . A
C126 C128 1.383 . A
C127 C133 1.377 1_645 A
C128 C132 1.377 1_645 A
C129 C130 1.441 1_655 S
C130 C131 1.514 . S
C131 C132 1.350 . A
C131 C133 1.383 . A
H134 C146 0.970 . S
H135 C146 0.970 . S
H136 C147 0.970 . S
H137 C147 0.970 . S
H138 C149 0.930 . S
H139 C150 0.930 . S
H140 C151 0.969 . S
H141 C151 0.970 . S
H142 C152 0.970 . S
H143 C152 0.970 . S
H144 C154 0.930 . S
H145 C155 0.930 . S
C146 C147 1.441 1_545 S
C147 C148 1.515 . S
C148 C149 1.350 1_565 A
C148 C150 1.383 . A
C149 C155 1.377 1_655 A
C150 C154 1.377 1_655 A
C151 C152 1.441 1_565 S
C152 C153 1.514 . S
C153 C154 1.350 1_545 A
C153 C155 1.383 . A
H156 C168 0.970 . S
H157 C168 0.970 . S
H158 C169 0.970 . S
H159 C169 0.970 . S
H160 C171 0.930 . S
H161 C172 0.930 . S
H162 C173 0.969 . S
H163 C173 0.970 . S
H164 C174 0.970 . S
H165 C174 0.970 . S
H166 C176 0.930 . S
H167 C177 0.930 . S
C168 C169 1.441 . S
C169 C170 1.515 . S
C170 C171 1.350 . A
C170 C172 1.383 . A
C171 C177 1.377 1_554 A
C172 C176 1.377 1_554 A
C173 C174 1.441 . S
C174 C175 1.514 . S
C175 C176 1.350 . A
C175 C177 1.383 . A
H178 C190 0.970 . S
H179 C190 0.970 . S
H180 C191 0.970 . S
H181 C191 0.970 . S
H182 C193 0.930 . S
H183 C194 0.930 . S
H184 C195 0.969 . S
H185 C195 0.970 . S
H186 C196 0.970 . S
H187 C196 0.970 . S
H188 C198 0.930 . S
H189 C199 0.930 . S
C190 C191 1.441 . S
C191 C192 1.515 . S
C192 C193 1.350 . A
C192 C194 1.383 . A
C193 C199 1.377 . A
C194 C198 1.377 . A
C195 C196 1.441 . S
C196 C197 1.514 . S
C197 C198 1.350 . A
C197 C199 1.383 . A
H200 C212 0.970 . S
H201 C212 0.970 . S
H202 C213 0.970 . S
H203 C213 0.970 . S
H204 C215 0.930 . S
H205 C216 0.930 . S
H206 C217 0.969 . S
H207 C217 0.970 . S
H208 C218 0.970 . S
H209 C218 0.970 . S
H210 C220 0.930 . S
H211 C221 0.930 . S
C212 C213 1.441 . S
C213 C214 1.515 . S
C214 C215 1.350 . A
C214 C216 1.383 . A
C215 C221 1.377 1_554 A
C216 C220 1.377 1_554 A
C217 C218 1.441 . S
C218 C219 1.514 . S
C219 C220 1.350 . A
C219 C221 1.383 . A
H222 C234 0.970 . S
H223 C234 0.970 . S
H224 C235 0.970 . S
H225 C235 0.970 . S
H226 C237 0.930 . S
H227 C238 0.930 . S
H228 C239 0.969 . S
H229 C239 0.970 . S
H230 C240 0.970 . S
H231 C240 0.970 . S
H232 C242 0.930 . S
H233 C243 0.930 . S
C234 C235 1.441 . S
C235 C236 1.515 . S
C236 C237 1.350 . A
C236 C238 1.383 . A
C237 C243 1.377 . A
C238 C242 1.377 . A
C239 C240 1.441 . S
C240 C241 1.514 . S
C241 C242 1.350 . A
C241 C243 1.383 . A
H244 C256 0.970 . S
H245 C256 0.970 . S
H246 C257 0.970 . S
H247 C257 0.970 . S
H248 C259 0.930 . S
H249 C260 0.930 . S
H250 C261 0.969 . S
H251 C261 0.970 . S
H252 C262 0.970 . S
H253 C262 0.970 . S
H254 C264 0.930 . S
H255 C265 0.930 . S
C256 C257 1.441 . S
C257 C258 1.515 . S
C258 C259 1.350 . A
C258 C260 1.383 . A
C259 C265 1.377 . A
C260 C264 1.377 . A
C261 C262 1.441 . S
C262 C263 1.514 . S
C263 C264 1.350 . A
C263 C265 1.383 . A
H266 C278 0.970 . S
H267 C278 0.970 . S
H268 C279 0.970 . S
H269 C279 0.970 . S
H270 C281 0.930 . S
H271 C282 0.930 . S
H272 C283 0.969 . S
H273 C283 0.970 . S
H274 C284 0.970 . S
H275 C284 0.970 . S
H276 C286 0.930 . S
H277 C287 0.930 . S
C278 C279 1.441 . S
C279 C280 1.515 . S
C280 C281 1.350 . A
C280 C282 1.383 . A
C281 C287 1.377 . A
C282 C286 1.377 . A
C283 C284 1.441 . S
C284 C285 1.514 . S
C285 C286 1.350 . A
C285 C287 1.383 . A
C102 C6 1.809 . S
C107 C4 1.809 . S
C124 C36 1.809 . S
C129 C34 1.809 1_655 S
C146 C66 1.809 . S
C151 C64 1.809 1_565 S
C168 C35 0.974 . S
C173 C29 0.970 . S
C190 C59 0.711 . S
C195 C65 0.723 . S
C212 C57 0.839 . S
C217 C28 0.878 . S
C234 C87 0.871 . S
C239 C58 0.825 . S
C256 C89 0.641 . S
C261 C27 0.652 . S
C278 C88 0.701 . S
C283 C5 0.613 . S
